@<TRIPOS>MOLECULE
*****
 20 21 0 0 0
SMALL
GASTEIGER

@<TRIPOS>ATOM
      1 C          59.7838   88.3168    8.2846 C.ar    1  UNL1        0.1724
      2 C          60.0156   86.9154    7.8026 C.ar    1  UNL1        0.0400
      3 C          60.8347   85.9653    8.6250 C.ar    1  UNL1        0.0033
      4 C          61.4219   86.4165    9.9293 C.ar    1  UNL1        0.0033
      5 C          61.1901   87.8179   10.4114 C.ar    1  UNL1        0.0400
      6 C          60.3710   88.7680    9.5890 C.ar    1  UNL1        0.1724
      7 C          59.4707   89.7338    6.1296 C.3     1  UNL1        0.2526
      8 O          58.9647   89.2670    7.4622 O.3     1  UNL1       -0.4684
      9 C          62.2410   85.4663   10.7517 C.2     1  UNL1        0.0034
     10 C          63.0060   84.3630   10.0830 C.2     1  UNL1        0.0420
     11 C          63.8251   83.4128   10.9054 C.2     1  UNL1        0.1957
     12 O          64.9090   82.6029   10.2580 O.2     1  UNL1       -0.2866
     13 C          63.5602   83.2726   12.3752 C.ar    1  UNL1        0.0420
     14 C          64.3804   84.0488   13.3624 C.ar    1  UNL1        0.0239
     15 C          64.1155   83.9087   14.8322 C.ar    1  UNL1        0.0990
     16 N          63.0305   82.9922   15.3147 N.ar    1  UNL1       -0.2423
     17 C          62.2103   82.2160   14.3273 C.ar    1  UNL1        0.0990
     18 C          62.4751   82.3562   12.8576 C.ar    1  UNL1        0.0239
     19 O          60.1392   90.1695   10.0710 O.3     1  UNL1       -0.4684
     20 C          59.5571   90.4075   11.4328 C.3     1  UNL1        0.2526
@<TRIPOS>BOND
     1     7     8    1
     2     8     1    1
     3     1     2   ar
     4     2     3   ar
     5     3     4   ar
     6     4     9    1
     7     9    10    2
     8    10    11    1
     9    11    12    2
    10    11    13    1
    11    13    14   ar
    12    14    15   ar
    13    15    16   ar
    14    16    17   ar
    15    17    18   ar
    16     4     5   ar
    17     5     6   ar
    18     6    19    1
    19    19    20    1
    20     6     1   ar
    21    18    13   ar
@<TRIPOS>MOLECULE
*****
 20 21 0 0 0
SMALL
GASTEIGER

@<TRIPOS>ATOM
      1 C          66.7327   92.2015   13.6566 C.ar    1  UNL1        0.1724
      2 C          66.0272   91.1718   14.4885 C.ar    1  UNL1        0.0400
      3 C          64.7282   90.5884   14.0172 C.ar    1  UNL1        0.0033
      4 C          64.1346   91.0347   12.7140 C.ar    1  UNL1        0.0033
      5 C          64.8400   92.0644   11.8821 C.ar    1  UNL1        0.0400
      6 C          66.1391   92.6477   12.3534 C.ar    1  UNL1        0.1724
      7 C          68.1239   93.4084   15.4890 C.3     1  UNL1        0.2526
      8 O          68.0317   92.7848   14.1279 O.3     1  UNL1       -0.4684
      9 C          62.8355   90.4513   12.2426 C.2     1  UNL1        0.0034
     10 C          62.4076   90.6285   10.8160 C.2     1  UNL1        0.0420
     11 C          61.1086   90.0451   10.3446 C.2     1  UNL1        0.1957
     12 O          59.8231   90.7762   10.5957 O.2     1  UNL1       -0.2866
     13 C          61.0950   88.7305    9.6222 C.ar    1  UNL1        0.0420
     14 C          62.1912   87.7341    9.8575 C.ar    1  UNL1        0.0239
     15 C          62.1776   86.4195    9.1351 C.ar    1  UNL1        0.0990
     16 N          61.0678   86.1015    8.1774 N.ar    1  UNL1       -0.2423
     17 C          59.9716   87.0980    7.9420 C.ar    1  UNL1        0.0990
     18 C          59.9852   88.4125    8.6645 C.ar    1  UNL1        0.0239
     19 O          66.8446   93.6774   11.5214 O.3     1  UNL1       -0.4684
     20 C          66.2440   95.0408   11.3473 C.3     1  UNL1        0.2526
@<TRIPOS>BOND
     1     7     8    1
     2     8     1    1
     3     1     2   ar
     4     2     3   ar
     5     3     4   ar
     6     4     9    1
     7     9    10    2
     8    10    11    1
     9    11    12    2
    10    11    13    1
    11    13    14   ar
    12    14    15   ar
    13    15    16   ar
    14    16    17   ar
    15    17    18   ar
    16     4     5   ar
    17     5     6   ar
    18     6    19    1
    19    19    20    1
    20     6     1   ar
    21    18    13   ar
@<TRIPOS>MOLECULE
*****
 20 21 0 0 0
SMALL
GASTEIGER

@<TRIPOS>ATOM
      1 C          60.4102   87.8825    9.7268 C.ar    1  UNL1        0.1724
      2 C          60.4861   89.3508    9.4298 C.ar    1  UNL1        0.0400
      3 C          61.5069   90.2043   10.1223 C.ar    1  UNL1        0.0033
      4 C          62.4518   89.5894   11.1118 C.ar    1  UNL1        0.0033
      5 C          62.3760   88.1211   11.4087 C.ar    1  UNL1        0.0400
      6 C          61.3552   87.2676   10.7163 C.ar    1  UNL1        0.1724
      7 C          59.7197   86.3799    7.7230 C.3     1  UNL1        0.2526
      8 O          59.3895   87.0290    9.0343 O.3     1  UNL1       -0.4684
      9 C          63.4726   90.4429   11.8043 C.2     1  UNL1        0.0034
     10 C          64.1337   91.5691   11.0663 C.2     1  UNL1        0.0420
     11 C          65.1545   92.4226   11.7588 C.2     1  UNL1        0.1957
     12 O          65.1611   92.5184   13.2557 O.2     1  UNL1       -0.2866
     13 C          66.1688   93.1803   10.9543 C.ar    1  UNL1        0.0420
     14 C          66.1021   94.6770   10.8815 C.ar    1  UNL1        0.0239
     15 C          67.1164   95.4348   10.0770 C.ar    1  UNL1        0.0990
     16 N          68.1973   94.6957    9.3454 N.ar    1  UNL1       -0.2423
     17 C          68.2640   93.1989    9.4182 C.ar    1  UNL1        0.0990
     18 C          67.2498   92.4413   10.2227 C.ar    1  UNL1        0.0239
     19 O          61.2793   85.7992   11.0133 O.3     1  UNL1       -0.4684
     20 C          62.5266   85.0364   11.3484 C.3     1  UNL1        0.2526
@<TRIPOS>BOND
     1     7     8    1
     2     8     1    1
     3     1     2   ar
     4     2     3   ar
     5     3     4   ar
     6     4     9    1
     7     9    10    2
     8    10    11    1
     9    11    12    2
    10    11    13    1
    11    13    14   ar
    12    14    15   ar
    13    15    16   ar
    14    16    17   ar
    15    17    18   ar
    16     4     5   ar
    17     5     6   ar
    18     6    19    1
    19    19    20    1
    20     6     1   ar
    21    18    13   ar
@<TRIPOS>MOLECULE
*****
 20 21 0 0 0
SMALL
GASTEIGER

@<TRIPOS>ATOM
      1 C          65.6572   93.1044   11.9776 C.ar    1  UNL1        0.1724
      2 C          65.0005   92.7210   10.6847 C.ar    1  UNL1        0.0400
      3 C          64.0308   91.5772   10.6463 C.ar    1  UNL1        0.0033
      4 C          63.7177   90.8170   11.9009 C.ar    1  UNL1        0.0033
      5 C          64.3744   91.2005   13.1938 C.ar    1  UNL1        0.0400
      6 C          65.3441   92.3442   13.2321 C.ar    1  UNL1        0.1724
      7 C          66.5107   95.3638   11.0201 C.3     1  UNL1        0.2526
      8 O          66.6270   94.2481   12.0159 O.3     1  UNL1       -0.4684
      9 C          62.7479   89.6733   11.8625 C.2     1  UNL1        0.0034
     10 C          62.3540   89.0677   10.5480 C.2     1  UNL1        0.0420
     11 C          61.3843   87.9240   10.5097 C.2     1  UNL1        0.1957
     12 O          60.3920   87.7445   11.6201 O.2     1  UNL1       -0.2866
     13 C          61.4068   86.9597    9.3608 C.ar    1  UNL1        0.0420
     14 C          62.6601   86.1985    9.0451 C.ar    1  UNL1        0.0239
     15 C          62.6827   85.2343    7.8962 C.ar    1  UNL1        0.0990
     16 N          61.4519   85.0313    7.0631 N.ar    1  UNL1       -0.2423
     17 C          60.1986   85.7926    7.3789 C.ar    1  UNL1        0.0990
     18 C          60.1761   86.7568    8.5277 C.ar    1  UNL1        0.0239
     19 O          66.0008   92.7277   14.5252 O.3     1  UNL1       -0.4684
     20 C          67.2046   91.9738   15.0075 C.3     1  UNL1        0.2526
@<TRIPOS>BOND
     1     7     8    1
     2     8     1    1
     3     1     2   ar
     4     2     3   ar
     5     3     4   ar
     6     4     9    1
     7     9    10    2
     8    10    11    1
     9    11    12    2
    10    11    13    1
    11    13    14   ar
    12    14    15   ar
    13    15    16   ar
    14    16    17   ar
    15    17    18   ar
    16     4     5   ar
    17     5     6   ar
    18     6    19    1
    19    19    20    1
    20     6     1   ar
    21    18    13   ar
@<TRIPOS>MOLECULE
*****
 20 21 0 0 0
SMALL
GASTEIGER

@<TRIPOS>ATOM
      1 C          63.5268   83.7188   13.4551 C.ar    1  UNL1        0.1724
      2 C          64.3162   83.9480   14.7098 C.ar    1  UNL1        0.0400
      3 C          64.6293   85.3460   15.1541 C.ar    1  UNL1        0.0033
      4 C          64.1532   86.5149   14.3437 C.ar    1  UNL1        0.0033
      5 C          63.3638   86.2858   13.0889 C.ar    1  UNL1        0.0400
      6 C          63.0507   84.8877   12.6447 C.ar    1  UNL1        0.1724
      7 C          62.1872   81.5120   13.7472 C.3     1  UNL1        0.2526
      8 O          63.2136   82.3208   13.0109 O.3     1  UNL1       -0.4684
      9 C          64.4664   87.9130   14.7879 C.2     1  UNL1        0.0034
     10 C          63.8519   89.0815   14.0760 C.2     1  UNL1        0.0420
     11 C          64.1651   90.4796   14.5203 C.2     1  UNL1        0.1957
     12 O          63.3894   91.1011   15.6436 O.2     1  UNL1       -0.2866
     13 C          65.2541   91.2562   13.8411 C.ar    1  UNL1        0.0420
     14 C          66.6040   91.3743   14.4843 C.ar    1  UNL1        0.0239
     15 C          67.6930   92.1509   13.8052 C.ar    1  UNL1        0.0990
     16 N          67.4320   92.8092   12.4829 N.ar    1  UNL1       -0.2423
     17 C          66.0819   92.6910   11.8397 C.ar    1  UNL1        0.0990
     18 C          64.9930   91.9145   12.5189 C.ar    1  UNL1        0.0239
     19 O          62.2613   84.6586   11.3899 O.3     1  UNL1       -0.4684
     20 C          61.5206   85.7961   10.7515 C.3     1  UNL1        0.2526
@<TRIPOS>BOND
     1     7     8    1
     2     8     1    1
     3     1     2   ar
     4     2     3   ar
     5     3     4   ar
     6     4     9    1
     7     9    10    2
     8    10    11    1
     9    11    12    2
    10    11    13    1
    11    13    14   ar
    12    14    15   ar
    13    15    16   ar
    14    16    17   ar
    15    17    18   ar
    16     4     5   ar
    17     5     6   ar
    18     6    19    1
    19    19    20    1
    20     6     1   ar
    21    18    13   ar
@<TRIPOS>MOLECULE
*****
 20 21 0 0 0
SMALL
GASTEIGER

@<TRIPOS>ATOM
      1 C          66.1470   92.9270   12.2664 C.ar    1  UNL1        0.1724
      2 C          64.9325   92.3017   11.6469 C.ar    1  UNL1        0.0400
      3 C          64.2087   91.1998   12.3624 C.ar    1  UNL1        0.0033
      4 C          64.6994   90.7232   13.6973 C.ar    1  UNL1        0.0033
      5 C          65.9139   91.3485   14.3168 C.ar    1  UNL1        0.0400
      6 C          66.6377   92.4504   13.6013 C.ar    1  UNL1        0.1724
      7 C          66.2060   95.3591   11.3545 C.3     1  UNL1        0.2526
      8 O          66.8709   94.0289   11.5510 O.3     1  UNL1       -0.4684
      9 C          63.9755   89.6213   14.4127 C.2     1  UNL1        0.0034
     10 C          64.6000   88.2620   14.5234 C.2     1  UNL1        0.0420
     11 C          63.8761   87.1601   15.2389 C.2     1  UNL1        0.1957
     12 O          63.2189   87.4287   16.5602 O.2     1  UNL1       -0.2866
     13 C          63.8096   85.7895   14.6330 C.ar    1  UNL1        0.0420
     14 C          63.5013   85.6287   13.1739 C.ar    1  UNL1        0.0239
     15 C          63.4347   84.2580   12.5680 C.ar    1  UNL1        0.0990
     16 N          63.6764   83.0483   13.4212 N.ar    1  UNL1       -0.2423
     17 C          63.9847   83.2092   14.8804 C.ar    1  UNL1        0.0990
     18 C          64.0513   84.5797   15.4863 C.ar    1  UNL1        0.0239
     19 O          67.8523   93.0758   14.2209 O.3     1  UNL1       -0.4684
     20 C          67.8710   93.3845   15.6886 C.3     1  UNL1        0.2526
@<TRIPOS>BOND
     1     7     8    1
     2     8     1    1
     3     1     2   ar
     4     2     3   ar
     5     3     4   ar
     6     4     9    1
     7     9    10    2
     8    10    11    1
     9    11    12    2
    10    11    13    1
    11    13    14   ar
    12    14    15   ar
    13    15    16   ar
    14    16    17   ar
    15    17    18   ar
    16     4     5   ar
    17     5     6   ar
    18     6    19    1
    19    19    20    1
    20     6     1   ar
    21    18    13   ar
@<TRIPOS>MOLECULE
*****
 20 21 0 0 0
SMALL
GASTEIGER

@<TRIPOS>ATOM
      1 C          63.0647   85.0262   12.3590 C.ar    1  UNL1        0.1724
      2 C          62.7986   86.4226   11.8804 C.ar    1  UNL1        0.0400
      3 C          63.2512   87.5951   12.6991 C.ar    1  UNL1        0.0033
      4 C          63.9700   87.3712   13.9965 C.ar    1  UNL1        0.0033
      5 C          64.2362   85.9747   14.4751 C.ar    1  UNL1        0.0400
      6 C          63.7835   84.8022   13.6563 C.ar    1  UNL1        0.1724
      7 C          63.6036   83.0864   10.7168 C.3     1  UNL1        0.2526
      8 O          62.6121   83.8537   11.5402 O.3     1  UNL1       -0.4684
      9 C          64.4227   88.5437   14.8152 C.2     1  UNL1        0.0034
     10 C          63.8788   89.9122   14.5302 C.2     1  UNL1        0.0420
     11 C          64.3315   91.0847   15.3489 C.2     1  UNL1        0.1957
     12 O          63.4451   91.6331   16.4276 O.2     1  UNL1       -0.2866
     13 C          65.6705   91.7088   15.0889 C.ar    1  UNL1        0.0420
     14 C          66.3697   91.4677   13.7839 C.ar    1  UNL1        0.0239
     15 C          67.7087   92.0918   13.5239 C.ar    1  UNL1        0.0990
     16 N          68.3485   92.9570   14.5689 N.ar    1  UNL1       -0.2423
     17 C          67.6493   93.1981   15.8739 C.ar    1  UNL1        0.0990
     18 C          66.3103   92.5740   16.1339 C.ar    1  UNL1        0.0239
     19 O          64.0497   83.4057   14.1350 O.3     1  UNL1       -0.4684
     20 C          62.9208   82.5597   14.6447 C.3     1  UNL1        0.2526
@<TRIPOS>BOND
     1     7     8    1
     2     8     1    1
     3     1     2   ar
     4     2     3   ar
     5     3     4   ar
     6     4     9    1
     7     9    10    2
     8    10    11    1
     9    11    12    2
    10    11    13    1
    11    13    14   ar
    12    14    15   ar
    13    15    16   ar
    14    16    17   ar
    15    17    18   ar
    16     4     5   ar
    17     5     6   ar
    18     6    19    1
    19    19    20    1
    20     6     1   ar
    21    18    13   ar
@<TRIPOS>MOLECULE
*****
 20 21 0 0 0
SMALL
GASTEIGER

@<TRIPOS>ATOM
      1 C          60.5039   88.4860    8.8901 C.ar    1  UNL1        0.1724
      2 C          60.2731   87.0562    8.4999 C.ar    1  UNL1        0.0400
      3 C          60.9267   85.9519    9.2768 C.ar    1  UNL1        0.0033
      4 C          61.8111   86.2775   10.4437 C.ar    1  UNL1        0.0033
      5 C          62.0419   87.7073   10.8338 C.ar    1  UNL1        0.0400
      6 C          61.3883   88.8116   10.0570 C.ar    1  UNL1        0.1724
      7 C          59.3575   89.3369    6.7194 C.3     1  UNL1        0.2526
      8 O          59.8504   89.5903    8.1133 O.3     1  UNL1       -0.4684
      9 C          62.4646   85.1732   11.2205 C.2     1  UNL1        0.0034
     10 C          63.0798   85.4596   12.5582 C.2     1  UNL1        0.0420
     11 C          63.7334   84.3553   13.3350 C.2     1  UNL1        0.1957
     12 O          64.9739   84.6312   14.1319 O.2     1  UNL1       -0.2866
     13 C          63.1464   82.9750   13.3150 C.ar    1  UNL1        0.0420
     14 C          63.5802   81.9906   12.2697 C.ar    1  UNL1        0.0239
     15 C          62.9932   80.6103   12.2496 C.ar    1  UNL1        0.0990
     16 N          61.9724   80.2145   13.2750 N.ar    1  UNL1       -0.2423
     17 C          61.5386   81.1990   14.3203 C.ar    1  UNL1        0.0990
     18 C          62.1256   82.5792   14.3403 C.ar    1  UNL1        0.0239
     19 O          61.6192   90.2415   10.4472 O.3     1  UNL1       -0.4684
     20 C          62.9776   90.8549   10.2788 C.3     1  UNL1        0.2526
@<TRIPOS>BOND
     1     7     8    1
     2     8     1    1
     3     1     2   ar
     4     2     3   ar
     5     3     4   ar
     6     4     9    1
     7     9    10    2
     8    10    11    1
     9    11    12    2
    10    11    13    1
    11    13    14   ar
    12    14    15   ar
    13    15    16   ar
    14    16    17   ar
    15    17    18   ar
    16     4     5   ar
    17     5     6   ar
    18     6    19    1
    19    19    20    1
    20     6     1   ar
    21    18    13   ar
@<TRIPOS>MOLECULE
*****
 20 21 0 0 0
SMALL
GASTEIGER

@<TRIPOS>ATOM
      1 C          66.4758   92.2965   13.0484 C.ar    1  UNL1        0.1724
      2 C          66.4090   92.7293   11.6138 C.ar    1  UNL1        0.0400
      3 C          65.2351   92.3377   10.7661 C.ar    1  UNL1        0.0033
      4 C          64.1280   91.5133   11.3530 C.ar    1  UNL1        0.0033
      5 C          64.1948   91.0804   12.7877 C.ar    1  UNL1        0.0400
      6 C          65.3687   91.4720   13.6353 C.ar    1  UNL1        0.1724
      7 C          67.4545   93.5952   15.0746 C.3     1  UNL1        0.2526
      8 O          67.6498   92.6881   13.8961 O.3     1  UNL1       -0.4684
      9 C          62.9541   91.1216   10.5054 C.2     1  UNL1        0.0034
     10 C          61.9872   90.0851   10.9960 C.2     1  UNL1        0.0420
     11 C          60.8133   89.6935   10.1484 C.2     1  UNL1        0.1957
     12 O          59.6184   90.5958   10.0591 O.2     1  UNL1       -0.2866
     13 C          60.8343   88.3995    9.3899 C.ar    1  UNL1        0.0420
     14 C          61.9614   87.4304    9.5911 C.ar    1  UNL1        0.0239
     15 C          61.9824   86.1365    8.8326 C.ar    1  UNL1        0.0990
     16 N          60.8763   85.8116    7.8729 N.ar    1  UNL1       -0.2423
     17 C          59.7492   86.7808    7.6717 C.ar    1  UNL1        0.0990
     18 C          59.7282   88.0747    8.4302 C.ar    1  UNL1        0.0239
     19 O          65.4355   91.0391   15.0700 O.3     1  UNL1       -0.4684
     20 C          64.5252   91.6642   16.0851 C.3     1  UNL1        0.2526
@<TRIPOS>BOND
     1     7     8    1
     2     8     1    1
     3     1     2   ar
     4     2     3   ar
     5     3     4   ar
     6     4     9    1
     7     9    10    2
     8    10    11    1
     9    11    12    2
    10    11    13    1
    11    13    14   ar
    12    14    15   ar
    13    15    16   ar
    14    16    17   ar
    15    17    18   ar
    16     4     5   ar
    17     5     6   ar
    18     6    19    1
    19    19    20    1
    20     6     1   ar
    21    18    13   ar
