@<TRIPOS>MOLECULE
*****
 33 35 0 0 0
SMALL
GASTEIGER

@<TRIPOS>ATOM
      1 C          63.4856   89.2144   15.6315 C.ar    1  UNL1        0.1391
      2 C          63.8941   88.9080   14.2210 C.ar    1  UNL1        0.0382
      3 C          64.5894   89.9517   13.3981 C.ar    1  UNL1        0.0180
      4 C          64.8762   91.3018   13.9856 C.ar    1  UNL1        0.0544
      5 C          64.4677   91.6081   15.3960 C.ar    1  UNL1        0.0180
      6 C          63.7724   90.5644   16.2190 C.ar    1  UNL1        0.0382
      7 N          65.5715   92.3455   13.1627 N.am    1  UNL1       -0.2537
      8 C          65.2100   92.5252   11.7181 C.2     1  UNL1        0.2536
      9 O          64.1531   91.6612   11.0964 O.2     1  UNL1       -0.2695
     10 C          65.9053   93.5689   10.8951 C.ar    1  UNL1        0.0645
     11 C          65.3713   94.9700   10.8538 C.ar    1  UNL1        0.0062
     12 C          66.0666   96.0137   10.0308 C.ar    1  UNL1        0.0116
     13 C          67.2959   95.6563    9.2492 C.ar    1  UNL1        0.0585
     14 CL         67.9912   96.7000    8.4263 Cl      1  UNL1       -0.0822
     15 C          67.8299   94.2552    9.2905 C.ar    1  UNL1        0.0229
     16 C          67.1346   93.2115   10.1135 C.ar    1  UNL1        0.0629
     17 CL         67.6687   91.8104   10.1548 Cl      1  UNL1       -0.0821
     18 C          66.6284   93.2095   13.7844 C.3     1  UNL1        0.1153
     19 C          67.8533   92.5831   14.3822 C.3     1  UNL1        0.0873
     20 N          68.8460   91.8862   13.4998 N.3     1  UNL1       -0.3197
     21 H          68.4139   91.0584   13.0895 H       1  UNL1        0.1189
     22 H          69.6563   91.6079   14.0533 H       1  UNL1        0.1189
     23 O          62.7903   88.1707   16.4545 O.3     1  UNL1       -0.4706
     24 C          63.5140   86.9147   16.8401 C.3     1  UNL1        0.2320
     25 C          63.6775   83.4438   13.9807 C.ar    1  UNL1       -0.0225
     26 C          64.7862   84.4540   13.9982 C.ar    1  UNL1       -0.0045
     27 C          64.7317   85.6110   14.9513 C.ar    1  UNL1       -0.0010
     28 C          63.5685   85.7578   15.8869 C.ar    1  UNL1        0.0211
     29 C          62.4598   84.7476   15.8694 C.ar    1  UNL1       -0.0010
     30 C          62.5143   83.5907   14.9163 C.ar    1  UNL1       -0.0045
     31 C          63.1801   80.9529   13.4349 C.3     1  UNL1        0.0047
     32 C          63.7320   82.2869   13.0275 C.3     1  UNL1        0.0224
     33 C          64.3383   82.4639   11.6671 C.3     1  UNL1        0.0047
@<TRIPOS>BOND
     1    31    32    1
     2    32    33    1
     3    32    25    1
     4    25    26   ar
     5    26    27   ar
     6    27    28   ar
     7    28    24    1
     8    24    23    1
     9    23     1    1
    10     1     2   ar
    11     2     3   ar
    12     3     4   ar
    13     4     7    1
    14     7    18    1
    15    18    19    1
    16    19    20    1
    17     7     8   am
    18     8     9    2
    19     8    10    1
    20    10    11   ar
    21    11    12   ar
    22    12    13   ar
    23    13    14    1
    24    13    15   ar
    25    15    16   ar
    26    16    17    1
    27     4     5   ar
    28     5     6   ar
    29    28    29   ar
    30    29    30   ar
    31    30    25   ar
    32     6     1   ar
    33    16    10   ar
    34    20    21    1
    35    20    22    1
@<TRIPOS>MOLECULE
*****
 33 35 0 0 0
SMALL
GASTEIGER

@<TRIPOS>ATOM
      1 C          61.1228   89.6246   10.4152 C.ar    1  UNL1        0.1391
      2 C          61.1685   89.7224   11.9113 C.ar    1  UNL1        0.0382
      3 C          62.3277   90.3963   12.5838 C.ar    1  UNL1        0.0180
      4 C          63.4411   90.9725   11.7601 C.ar    1  UNL1        0.0544
      5 C          63.3954   90.8748   10.2641 C.ar    1  UNL1        0.0180
      6 C          62.2362   90.2008    9.5916 C.ar    1  UNL1        0.0382
      7 N          64.6002   91.6464   12.4326 N.am    1  UNL1       -0.2537
      8 C          65.2321   91.0226   13.6415 C.2     1  UNL1        0.2536
      9 O          64.7049   89.7248   14.1779 O.2     1  UNL1       -0.2695
     10 C          66.3913   91.6965   14.3140 C.ar    1  UNL1        0.0645
     11 C          67.7358   91.7167   13.6493 C.ar    1  UNL1        0.0062
     12 C          68.8949   92.3906   14.3218 C.ar    1  UNL1        0.0116
     13 C          68.7095   93.0444   15.6590 C.ar    1  UNL1        0.0585
     14 CL         69.8686   93.7183   16.3315 Cl      1  UNL1       -0.0822
     15 C          67.3650   93.0242   16.3237 C.ar    1  UNL1        0.0229
     16 C          66.2059   92.3503   15.6512 C.ar    1  UNL1        0.0629
     17 CL         64.8613   92.3302   16.3160 Cl      1  UNL1       -0.0821
     18 C          65.1274   92.9443   11.8962 C.3     1  UNL1        0.1153
     19 C          66.1136   92.9434   10.7659 C.3     1  UNL1        0.0873
     20 N          67.1764   93.9996   10.6970 N.3     1  UNL1       -0.3197
     21 H          66.7419   94.9096   10.5437 H       1  UNL1        0.1189
     22 H          67.8123   93.7924    9.9269 H       1  UNL1        0.1189
     23 O          59.9637   88.9507    9.7427 O.3     1  UNL1       -0.4706
     24 C          60.1718   87.6638    9.0007 C.3     1  UNL1        0.2320
     25 C          63.0119   84.5694   10.6158 C.ar    1  UNL1       -0.0225
     26 C          62.0560   85.2646   11.5392 C.ar    1  UNL1       -0.0045
     27 C          61.1093   86.2961   11.0009 C.ar    1  UNL1       -0.0010
     28 C          61.1185   86.6323    9.5391 C.ar    1  UNL1        0.0211
     29 C          62.0745   85.9371    8.6157 C.ar    1  UNL1       -0.0010
     30 C          63.0212   84.9056    9.1541 C.ar    1  UNL1       -0.0045
     31 C          64.5133   82.4817   10.2450 C.3     1  UNL1        0.0047
     32 C          63.9586   83.5379   11.1542 C.3     1  UNL1        0.0224
     33 C          64.3506   83.5626   12.6018 C.3     1  UNL1        0.0047
@<TRIPOS>BOND
     1    31    32    1
     2    32    33    1
     3    32    25    1
     4    25    26   ar
     5    26    27   ar
     6    27    28   ar
     7    28    24    1
     8    24    23    1
     9    23     1    1
    10     1     2   ar
    11     2     3   ar
    12     3     4   ar
    13     4     7    1
    14     7    18    1
    15    18    19    1
    16    19    20    1
    17     7     8   am
    18     8     9    2
    19     8    10    1
    20    10    11   ar
    21    11    12   ar
    22    12    13   ar
    23    13    14    1
    24    13    15   ar
    25    15    16   ar
    26    16    17    1
    27     4     5   ar
    28     5     6   ar
    29    28    29   ar
    30    29    30   ar
    31    30    25   ar
    32     6     1   ar
    33    16    10   ar
    34    20    21    1
    35    20    22    1
@<TRIPOS>MOLECULE
*****
 33 35 0 0 0
SMALL
GASTEIGER

@<TRIPOS>ATOM
      1 C          64.0048   89.8273   14.2566 C.ar    1  UNL1        0.1391
      2 C          64.3093   88.5810   15.0338 C.ar    1  UNL1        0.0382
      3 C          64.0117   87.2358   14.4407 C.ar    1  UNL1        0.0180
      4 C          63.4094   87.1369   13.0704 C.ar    1  UNL1        0.0544
      5 C          63.1049   88.3832   12.2933 C.ar    1  UNL1        0.0180
      6 C          63.4026   89.7284   12.8864 C.ar    1  UNL1        0.0382
      7 N          63.1117   85.7917   12.4773 N.am    1  UNL1       -0.2537
      8 C          63.8962   84.5897   12.9130 C.2     1  UNL1        0.2536
      9 O          64.9783   84.7330   13.9418 O.2     1  UNL1       -0.2695
     10 C          63.5985   83.2445   12.3199 C.ar    1  UNL1        0.0645
     11 C          64.1289   82.8893   10.9625 C.ar    1  UNL1        0.0062
     12 C          63.8312   81.5441   10.3694 C.ar    1  UNL1        0.0116
     13 C          63.0031   80.5540   11.1337 C.ar    1  UNL1        0.0585
     14 CL         62.7055   79.2088   10.5406 Cl      1  UNL1       -0.0822
     15 C          62.4728   80.9092   12.4911 C.ar    1  UNL1        0.0229
     16 C          62.7705   82.2545   13.0842 C.ar    1  UNL1        0.0629
     17 CL         62.2401   82.6096   14.4416 Cl      1  UNL1       -0.0821
     18 C          62.0295   85.6485   11.4485 C.3     1  UNL1        0.1153
     19 C          62.3481   85.8323    9.9943 C.3     1  UNL1        0.0873
     20 N          61.7730   86.9955    9.2418 N.3     1  UNL1       -0.3197
     21 H          60.7597   86.8950    9.1832 H       1  UNL1        0.1189
     22 H          62.1672   87.0204    8.3014 H       1  UNL1        0.1189
     23 O          64.3025   91.1726   14.8497 O.3     1  UNL1       -0.4706
     24 C          65.6791   91.7563   14.7317 C.3     1  UNL1        0.2320
     25 C          67.3609   92.7519   10.6782 C.ar    1  UNL1       -0.0225
     26 C          65.9262   93.0584   10.9909 C.ar    1  UNL1       -0.0045
     27 C          65.3657   92.7265   12.3421 C.ar    1  UNL1       -0.0010
     28 C          66.2397   92.0882   13.3805 C.ar    1  UNL1        0.0211
     29 C          67.6744   91.7817   13.0678 C.ar    1  UNL1       -0.0010
     30 C          68.2349   92.1136   11.7167 C.ar    1  UNL1       -0.0045
     31 C          68.8273   92.1115    8.6314 C.3     1  UNL1        0.0047
     32 C          67.9214   93.0838    9.3271 C.3     1  UNL1        0.0224
     33 C          67.5762   94.3880    8.6715 C.3     1  UNL1        0.0047
@<TRIPOS>BOND
     1    31    32    1
     2    32    33    1
     3    32    25    1
     4    25    26   ar
     5    26    27   ar
     6    27    28   ar
     7    28    24    1
     8    24    23    1
     9    23     1    1
    10     1     2   ar
    11     2     3   ar
    12     3     4   ar
    13     4     7    1
    14     7    18    1
    15    18    19    1
    16    19    20    1
    17     7     8   am
    18     8     9    2
    19     8    10    1
    20    10    11   ar
    21    11    12   ar
    22    12    13   ar
    23    13    14    1
    24    13    15   ar
    25    15    16   ar
    26    16    17    1
    27     4     5   ar
    28     5     6   ar
    29    28    29   ar
    30    29    30   ar
    31    30    25   ar
    32     6     1   ar
    33    16    10   ar
    34    20    21    1
    35    20    22    1
@<TRIPOS>MOLECULE
*****
 33 35 0 0 0
SMALL
GASTEIGER

@<TRIPOS>ATOM
      1 C          63.5446   88.5979   15.4833 C.ar    1  UNL1        0.1391
      2 C          63.9016   88.1619   14.0931 C.ar    1  UNL1        0.0382
      3 C          64.3019   89.1804   13.0672 C.ar    1  UNL1        0.0180
      4 C          64.3451   90.6349   13.4315 C.ar    1  UNL1        0.0544
      5 C          63.9881   91.0709   14.8216 C.ar    1  UNL1        0.0180
      6 C          63.5878   90.0523   15.8475 C.ar    1  UNL1        0.0382
      7 N          64.7454   91.6534   12.4056 N.am    1  UNL1       -0.2537
      8 C          65.9970   92.4578   12.5959 C.2     1  UNL1        0.2536
      9 O          66.8484   92.2437   13.8122 O.2     1  UNL1       -0.2695
     10 C          66.3973   93.4763   11.5701 C.ar    1  UNL1        0.0645
     11 C          65.9279   94.8951   11.6989 C.ar    1  UNL1        0.0062
     12 C          66.3281   95.9136   10.6730 C.ar    1  UNL1        0.0116
     13 C          67.1978   95.5133    9.5183 C.ar    1  UNL1        0.0585
     14 CL         67.5981   96.5318    8.4924 Cl      1  UNL1       -0.0822
     15 C          67.6673   94.0945    9.3895 C.ar    1  UNL1        0.0229
     16 C          67.2670   93.0760   10.4154 C.ar    1  UNL1        0.0629
     17 CL         67.7365   91.6572   10.2865 Cl      1  UNL1       -0.0821
     18 C          63.8939   91.8676   11.1894 C.3     1  UNL1        0.1153
     19 C          62.6317   91.0773   11.0089 C.3     1  UNL1        0.0873
     20 N          62.5961   89.9316   10.0414 N.3     1  UNL1       -0.3197
     21 H          62.7136   90.2848    9.0917 H       1  UNL1        0.1189
     22 H          61.6997   89.4507   10.1168 H       1  UNL1        0.1189
     23 O          63.1443   87.5794   16.5092 O.3     1  UNL1       -0.4706
     24 C          63.9071   86.2932   16.6264 C.3     1  UNL1        0.2320
     25 C          63.2683   83.0155   13.6100 C.ar    1  UNL1       -0.0225
     26 C          64.5039   83.8634   13.5458 C.ar    1  UNL1       -0.0045
     27 C          64.7168   84.9560   14.5513 C.ar    1  UNL1       -0.0010
     28 C          63.6941   85.2006   15.6209 C.ar    1  UNL1        0.0211
     29 C          62.4585   84.3526   15.6851 C.ar    1  UNL1       -0.0010
     30 C          62.2456   83.2601   14.6797 C.ar    1  UNL1       -0.0045
     31 C          62.3792   80.6481   13.0140 C.3     1  UNL1        0.0047
     32 C          63.0554   81.9229   12.6046 C.3     1  UNL1        0.0224
     33 C          63.5186   82.1051   11.1896 C.3     1  UNL1        0.0047
@<TRIPOS>BOND
     1    31    32    1
     2    32    33    1
     3    32    25    1
     4    25    26   ar
     5    26    27   ar
     6    27    28   ar
     7    28    24    1
     8    24    23    1
     9    23     1    1
    10     1     2   ar
    11     2     3   ar
    12     3     4   ar
    13     4     7    1
    14     7    18    1
    15    18    19    1
    16    19    20    1
    17     7     8   am
    18     8     9    2
    19     8    10    1
    20    10    11   ar
    21    11    12   ar
    22    12    13   ar
    23    13    14    1
    24    13    15   ar
    25    15    16   ar
    26    16    17    1
    27     4     5   ar
    28     5     6   ar
    29    28    29   ar
    30    29    30   ar
    31    30    25   ar
    32     6     1   ar
    33    16    10   ar
    34    20    21    1
    35    20    22    1
@<TRIPOS>MOLECULE
*****
 33 35 0 0 0
SMALL
GASTEIGER

@<TRIPOS>ATOM
      1 C          61.1752   89.7323   10.3753 C.ar    1  UNL1        0.1391
      2 C          62.5187   90.1283    9.8383 C.ar    1  UNL1        0.0382
      3 C          63.6232   90.5019   10.7820 C.ar    1  UNL1        0.0180
      4 C          63.3842   90.4796   12.2627 C.ar    1  UNL1        0.0544
      5 C          62.0407   90.0836   12.7997 C.ar    1  UNL1        0.0180
      6 C          60.9362   89.7100   11.8560 C.ar    1  UNL1        0.0382
      7 N          64.4887   90.8532   13.2064 N.am    1  UNL1       -0.2537
      8 C          65.4078   91.9905   12.8724 C.2     1  UNL1        0.2536
      9 O          65.2225   92.7542   11.5948 O.2     1  UNL1       -0.2695
     10 C          66.5123   92.3641   13.8161 C.ar    1  UNL1        0.0645
     11 C          66.1867   92.9635   15.1520 C.ar    1  UNL1        0.0062
     12 C          67.2912   93.3371   16.0957 C.ar    1  UNL1        0.0116
     13 C          68.7213   93.1113   15.7034 C.ar    1  UNL1        0.0585
     14 CL         69.8258   93.4849   16.6471 Cl      1  UNL1       -0.0822
     15 C          69.0469   92.5119   14.3675 C.ar    1  UNL1        0.0229
     16 C          67.9424   92.1383   13.4239 C.ar    1  UNL1        0.0629
     17 CL         68.2680   91.5389   12.0879 Cl      1  UNL1       -0.0821
     18 C          64.6739   90.0894   14.4840 C.3     1  UNL1        0.1153
     19 C          63.5666   90.0384   15.4946 C.3     1  UNL1        0.0873
     20 N          63.5284   91.0337   16.6161 N.3     1  UNL1       -0.3197
     21 H          64.3280   90.8837   17.2314 H       1  UNL1        0.1189
     22 H          62.6648   90.9159   17.1460 H       1  UNL1        0.1189
     23 O          60.0707   89.3587    9.4317 O.3     1  UNL1       -0.4706
     24 C          59.9533   87.9481    8.9354 C.3     1  UNL1        0.2320
     25 C          62.7776   84.7882   10.4483 C.ar    1  UNL1       -0.0225
     26 C          62.7872   85.1705    8.9979 C.ar    1  UNL1       -0.0045
     27 C          61.8458   86.2238    8.4936 C.ar    1  UNL1       -0.0010
     28 C          60.8947   86.8948    9.4397 C.ar    1  UNL1        0.0211
     29 C          60.8851   86.5126   10.8901 C.ar    1  UNL1       -0.0010
     30 C          61.8265   85.4593   11.3944 C.ar    1  UNL1       -0.0045
     31 C          64.1166   83.7146   12.3988 C.3     1  UNL1        0.0047
     32 C          63.7190   83.7350   10.9526 C.3     1  UNL1        0.0224
     33 C          64.2628   82.7020   10.0107 C.3     1  UNL1        0.0047
@<TRIPOS>BOND
     1    31    32    1
     2    32    33    1
     3    32    25    1
     4    25    26   ar
     5    26    27   ar
     6    27    28   ar
     7    28    24    1
     8    24    23    1
     9    23     1    1
    10     1     2   ar
    11     2     3   ar
    12     3     4   ar
    13     4     7    1
    14     7    18    1
    15    18    19    1
    16    19    20    1
    17     7     8   am
    18     8     9    2
    19     8    10    1
    20    10    11   ar
    21    11    12   ar
    22    12    13   ar
    23    13    14    1
    24    13    15   ar
    25    15    16   ar
    26    16    17    1
    27     4     5   ar
    28     5     6   ar
    29    28    29   ar
    30    29    30   ar
    31    30    25   ar
    32     6     1   ar
    33    16    10   ar
    34    20    21    1
    35    20    22    1
@<TRIPOS>MOLECULE
*****
 33 35 0 0 0
SMALL
GASTEIGER

@<TRIPOS>ATOM
      1 C          64.1360   90.4915   14.5712 C.ar    1  UNL1        0.1391
      2 C          63.3563   90.9616   13.3790 C.ar    1  UNL1        0.0382
      3 C          62.8725   89.9714   12.3614 C.ar    1  UNL1        0.0180
      4 C          63.1684   88.5112   12.5360 C.ar    1  UNL1        0.0544
      5 C          63.9481   88.0413   13.7281 C.ar    1  UNL1        0.0180
      6 C          64.4319   89.0314   14.7457 C.ar    1  UNL1        0.0382
      7 N          62.6846   87.5211   11.5184 N.am    1  UNL1       -0.2537
      8 C          62.5807   87.9183   10.0757 C.2     1  UNL1        0.2536
      9 O          62.9607   89.3057    9.6506 O.2     1  UNL1       -0.2695
     10 C          62.0969   86.9281    9.0581 C.ar    1  UNL1        0.0645
     11 C          63.0512   85.9331    8.4670 C.ar    1  UNL1        0.0062
     12 C          62.5674   84.9430    7.4494 C.ar    1  UNL1        0.0116
     13 C          61.1293   84.9478    7.0229 C.ar    1  UNL1        0.0585
     14 CL         60.6455   83.9576    6.0053 Cl      1  UNL1       -0.0822
     15 C          60.1751   85.9428    7.6139 C.ar    1  UNL1        0.0229
     16 C          60.6589   86.9329    8.6315 C.ar    1  UNL1        0.0629
     17 CL         59.7046   87.9280    9.2226 Cl      1  UNL1       -0.0821
     18 C          62.3046   86.1336   11.9435 C.3     1  UNL1        0.1153
     19 C          63.3494   85.0601   12.0201 C.3     1  UNL1        0.0873
     20 N          62.9655   83.6672   12.4230 N.3     1  UNL1       -0.3197
     21 H          62.6506   83.6685   13.3932 H       1  UNL1        0.1189
     22 H          63.7729   83.0511   12.3284 H       1  UNL1        0.1189
     23 O          64.6198   91.4817   15.5888 O.3     1  UNL1       -0.4706
     24 C          65.8944   92.2367   15.3537 C.3     1  UNL1        0.2320
     25 C          67.3840   92.8853   11.1572 C.ar    1  UNL1       -0.0225
     26 C          66.2421   93.7038   11.6826 C.ar    1  UNL1       -0.0045
     27 C          65.7456   93.4876   13.0814 C.ar    1  UNL1       -0.0010
     28 C          66.3909   92.4529   13.9548 C.ar    1  UNL1        0.0211
     29 C          67.5328   91.6344   13.4295 C.ar    1  UNL1       -0.0010
     30 C          68.0294   91.8506   12.0306 C.ar    1  UNL1       -0.0045
     31 C          67.6338   94.4105    9.0688 C.3     1  UNL1        0.0047
     32 C          67.8806   93.1015    9.7584 C.3     1  UNL1        0.0224
     33 C          68.6240   92.0087    9.0491 C.3     1  UNL1        0.0047
@<TRIPOS>BOND
     1    31    32    1
     2    32    33    1
     3    32    25    1
     4    25    26   ar
     5    26    27   ar
     6    27    28   ar
     7    28    24    1
     8    24    23    1
     9    23     1    1
    10     1     2   ar
    11     2     3   ar
    12     3     4   ar
    13     4     7    1
    14     7    18    1
    15    18    19    1
    16    19    20    1
    17     7     8   am
    18     8     9    2
    19     8    10    1
    20    10    11   ar
    21    11    12   ar
    22    12    13   ar
    23    13    14    1
    24    13    15   ar
    25    15    16   ar
    26    16    17    1
    27     4     5   ar
    28     5     6   ar
    29    28    29   ar
    30    29    30   ar
    31    30    25   ar
    32     6     1   ar
    33    16    10   ar
    34    20    21    1
    35    20    22    1
@<TRIPOS>MOLECULE
*****
 33 35 0 0 0
SMALL
GASTEIGER

@<TRIPOS>ATOM
      1 C          59.2557   90.8232    5.5677 C.ar    1  UNL1        0.1391
      2 C          58.4326   91.7784    4.7552 C.ar    1  UNL1        0.0382
      3 C          59.0690   92.5589    3.6436 C.ar    1  UNL1        0.0180
      4 C          60.5285   92.3841    3.3444 C.ar    1  UNL1        0.0544
      5 C          61.3514   91.4289    4.1568 C.ar    1  UNL1        0.0180
      6 C          60.7150   90.6484    5.2685 C.ar    1  UNL1        0.0382
      7 N          61.1649   93.1646    2.2327 N.am    1  UNL1       -0.2537
      8 C          62.5416   92.8062    1.7573 C.2     1  UNL1        0.2536
      9 O          63.2820   91.6674    2.3936 O.2     1  UNL1       -0.2695
     10 C          63.1780   93.5867    0.6456 C.ar    1  UNL1        0.0645
     11 C          62.7876   93.3191   -0.7778 C.ar    1  UNL1        0.0062
     12 C          63.4240   94.0996   -1.8894 C.ar    1  UNL1        0.0116
     13 C          64.4508   95.1477   -1.5778 C.ar    1  UNL1        0.0585
     14 CL         65.0872   95.9281   -2.6895 Cl      1  UNL1       -0.0822
     15 C          64.8413   95.4152   -0.1545 C.ar    1  UNL1        0.0229
     16 C          64.2049   94.6348    0.9572 C.ar    1  UNL1        0.0629
     17 CL         64.5953   94.9024    2.3806 Cl      1  UNL1       -0.0821
     18 C          60.4244   94.3035    1.5964 C.3     1  UNL1        0.1153
     19 C          59.3923   94.0314    0.5425 C.3     1  UNL1        0.0873
     20 N          59.2204   92.6429    0.0018 N.3     1  UNL1       -0.3197
     21 H          60.0607   92.3700   -0.5078 H       1  UNL1        0.1189
     22 H          58.4184   92.6201   -0.6280 H       1  UNL1        0.1189
     23 O          58.6193   90.0427    6.6794 O.3     1  UNL1       -0.4706
     24 C          58.9629   88.5954    6.8720 C.3     1  UNL1        0.2320
     25 C          61.5514   87.3386   10.3318 C.ar    1  UNL1       -0.0225
     26 C          60.9686   86.3032    9.4163 C.ar    1  UNL1       -0.0045
     27 C          60.1057   86.7222    8.2630 C.ar    1  UNL1       -0.0010
     28 C          59.8258   88.1765    8.0253 C.ar    1  UNL1        0.0211
     29 C          60.4086   89.2118    8.9408 C.ar    1  UNL1       -0.0010
     30 C          61.2714   88.7929   10.0941 C.ar    1  UNL1       -0.0045
     31 C          62.5333   85.4682   11.8443 C.3     1  UNL1        0.0047
     32 C          62.4142   86.9197   11.4851 C.3     1  UNL1        0.0224
     33 C          63.1580   87.9522   12.2792 C.3     1  UNL1        0.0047
@<TRIPOS>BOND
     1    31    32    1
     2    32    33    1
     3    32    25    1
     4    25    26   ar
     5    26    27   ar
     6    27    28   ar
     7    28    24    1
     8    24    23    1
     9    23     1    1
    10     1     2   ar
    11     2     3   ar
    12     3     4   ar
    13     4     7    1
    14     7    18    1
    15    18    19    1
    16    19    20    1
    17     7     8   am
    18     8     9    2
    19     8    10    1
    20    10    11   ar
    21    11    12   ar
    22    12    13   ar
    23    13    14    1
    24    13    15   ar
    25    15    16   ar
    26    16    17    1
    27     4     5   ar
    28     5     6   ar
    29    28    29   ar
    30    29    30   ar
    31    30    25   ar
    32     6     1   ar
    33    16    10   ar
    34    20    21    1
    35    20    22    1
@<TRIPOS>MOLECULE
*****
 33 35 0 0 0
SMALL
GASTEIGER

@<TRIPOS>ATOM
      1 C          59.5894   91.3071    5.0671 C.ar    1  UNL1        0.1391
      2 C          58.7917   92.2024    4.1658 C.ar    1  UNL1        0.0382
      3 C          59.4500   92.8628    2.9909 C.ar    1  UNL1        0.0180
      4 C          60.9060   92.6277    2.7171 C.ar    1  UNL1        0.0544
      5 C          61.7036   91.7324    3.6183 C.ar    1  UNL1        0.0180
      6 C          61.0453   91.0721    4.7933 C.ar    1  UNL1        0.0382
      7 N          61.5644   93.2880    1.5421 N.am    1  UNL1       -0.2537
      8 C          61.2006   92.8727    0.1474 C.2     1  UNL1        0.2536
      9 O          60.1785   91.7971   -0.0722 O.2     1  UNL1       -0.2695
     10 C          61.8589   93.5330   -1.0276 C.ar    1  UNL1        0.0645
     11 C          63.1286   92.9675   -1.5914 C.ar    1  UNL1        0.0062
     12 C          63.7869   93.6278   -2.7664 C.ar    1  UNL1        0.0116
     13 C          63.1755   94.8536   -3.3775 C.ar    1  UNL1        0.0585
     14 CL         63.8339   95.5139   -4.5525 Cl      1  UNL1       -0.0822
     15 C          61.9058   95.4191   -2.8137 C.ar    1  UNL1        0.0229
     16 C          61.2475   94.7588   -1.6387 C.ar    1  UNL1        0.0629
     17 CL         59.9777   95.3244   -1.0749 Cl      1  UNL1       -0.0821
     18 C          62.5865   94.3637    1.7618 C.3     1  UNL1        0.1153
     19 C          64.0343   94.0025    1.9147 C.3     1  UNL1        0.0873
     20 N          64.4671   92.5714    1.7944 N.3     1  UNL1       -0.3197
     21 H          64.0741   92.0314    2.5653 H       1  UNL1        0.1189
     22 H          65.4852   92.5201    1.8276 H       1  UNL1        0.1189
     23 O          58.9311   90.6468    6.2421 O.3     1  UNL1       -0.4706
     24 C          59.0196   89.1592    6.4132 C.3     1  UNL1        0.2320
     25 C          61.3005   87.4253    9.8832 C.ar    1  UNL1       -0.0225
     26 C          61.1716   88.9127    9.7385 C.ar    1  UNL1       -0.0045
     27 C          60.4113   89.4907    8.5818 C.ar    1  UNL1       -0.0010
     28 C          59.7799   88.5813    7.5698 C.ar    1  UNL1        0.0211
     29 C          59.9087   87.0938    7.7145 C.ar    1  UNL1       -0.0010
     30 C          60.6690   86.5159    8.8712 C.ar    1  UNL1       -0.0045
     31 C          62.8320   87.7499   11.9566 C.3     1  UNL1        0.0047
     32 C          62.0608   86.8473   11.0398 C.3     1  UNL1        0.0224
     33 C          62.0499   85.3667   11.2798 C.3     1  UNL1        0.0047
@<TRIPOS>BOND
     1    31    32    1
     2    32    33    1
     3    32    25    1
     4    25    26   ar
     5    26    27   ar
     6    27    28   ar
     7    28    24    1
     8    24    23    1
     9    23     1    1
    10     1     2   ar
    11     2     3   ar
    12     3     4   ar
    13     4     7    1
    14     7    18    1
    15    18    19    1
    16    19    20    1
    17     7     8   am
    18     8     9    2
    19     8    10    1
    20    10    11   ar
    21    11    12   ar
    22    12    13   ar
    23    13    14    1
    24    13    15   ar
    25    15    16   ar
    26    16    17    1
    27     4     5   ar
    28     5     6   ar
    29    28    29   ar
    30    29    30   ar
    31    30    25   ar
    32     6     1   ar
    33    16    10   ar
    34    20    21    1
    35    20    22    1
@<TRIPOS>MOLECULE
*****
 33 35 0 0 0
SMALL
GASTEIGER

@<TRIPOS>ATOM
      1 C          59.2786   89.2262    6.8649 C.ar    1  UNL1        0.1391
      2 C          60.1354   89.9995    7.8231 C.ar    1  UNL1        0.0382
      3 C          60.6876   89.3279    9.0454 C.ar    1  UNL1        0.0180
      4 C          60.3830   87.8831    9.3096 C.ar    1  UNL1        0.0544
      5 C          59.5263   87.1099    8.3515 C.ar    1  UNL1        0.0180
      6 C          58.9740   87.7814    7.1292 C.ar    1  UNL1        0.0382
      7 N          60.9353   87.2116   10.5319 N.am    1  UNL1       -0.2537
      8 C          62.0801   86.2505   10.4071 C.2     1  UNL1        0.2536
      9 O          62.6727   85.9609    9.0599 O.2     1  UNL1       -0.2695
     10 C          62.6323   85.5789   11.6294 C.ar    1  UNL1        0.0645
     11 C          62.4981   84.0942   11.7947 C.ar    1  UNL1        0.0062
     12 C          63.0504   83.4226   13.0170 C.ar    1  UNL1        0.0116
     13 C          63.7368   84.2359   14.0740 C.ar    1  UNL1        0.0585
     14 CL         64.2890   83.5643   15.2964 Cl      1  UNL1       -0.0822
     15 C          63.8710   85.7207   13.9088 C.ar    1  UNL1        0.0229
     16 C          63.3187   86.3922   12.6864 C.ar    1  UNL1        0.0629
     17 CL         63.4529   87.8771   12.5212 Cl      1  UNL1       -0.0821
     18 C          60.3426   87.5012   11.8792 C.3     1  UNL1        0.1153
     19 C          59.4513   88.6931   12.0659 C.3     1  UNL1        0.0873
     20 N          58.3812   88.6721   13.1168 N.3     1  UNL1       -0.3197
     21 H          57.6807   87.9714   12.8748 H       1  UNL1        0.1189
     22 H          57.9396   89.5900   13.1707 H       1  UNL1        0.1189
     23 O          58.7263   89.8977    5.6426 O.3     1  UNL1       -0.4706
     24 C          58.9803   91.3575    5.4095 C.3     1  UNL1        0.2320
     25 C          61.8825   92.6560    2.2250 C.ar    1  UNL1       -0.0225
     26 C          60.4734   93.1700    2.2102 C.ar    1  UNL1       -0.0045
     27 C          59.5060   92.7372    3.2717 C.ar    1  UNL1       -0.0010
     28 C          59.9477   91.7903    4.3480 C.ar    1  UNL1        0.0211
     29 C          61.3568   91.2764    4.3627 C.ar    1  UNL1       -0.0010
     30 C          62.3242   91.7092    3.3012 C.ar    1  UNL1       -0.0045
     31 C          62.3474   93.4808   -0.1944 C.3     1  UNL1        0.0047
     32 C          62.8499   93.0889    1.1635 C.3     1  UNL1        0.0224
     33 C          64.3197   93.1298    1.4598 C.3     1  UNL1        0.0047
@<TRIPOS>BOND
     1    31    32    1
     2    32    33    1
     3    32    25    1
     4    25    26   ar
     5    26    27   ar
     6    27    28   ar
     7    28    24    1
     8    24    23    1
     9    23     1    1
    10     1     2   ar
    11     2     3   ar
    12     3     4   ar
    13     4     7    1
    14     7    18    1
    15    18    19    1
    16    19    20    1
    17     7     8   am
    18     8     9    2
    19     8    10    1
    20    10    11   ar
    21    11    12   ar
    22    12    13   ar
    23    13    14    1
    24    13    15   ar
    25    15    16   ar
    26    16    17    1
    27     4     5   ar
    28     5     6   ar
    29    28    29   ar
    30    29    30   ar
    31    30    25   ar
    32     6     1   ar
    33    16    10   ar
    34    20    21    1
    35    20    22    1
