@<TRIPOS>MOLECULE
*****
 21 22 0 0 0
SMALL
GASTEIGER

@<TRIPOS>ATOM
      1 O          62.4114   84.6402   13.9440 O.3     1  UNL1       -0.4728
      2 C          62.9929   84.1330   12.6577 C.ar    1  UNL1        0.1386
      3 C          63.8599   82.9090   12.6576 C.ar    1  UNL1        0.0369
      4 C          64.4414   82.4018   11.3713 C.ar    1  UNL1        0.0031
      5 C          64.1560   83.1187   10.0850 C.ar    1  UNL1        0.0002
      6 C          63.2890   84.3428   10.0850 C.ar    1  UNL1        0.0029
      7 C          63.0035   85.0597    8.7988 C.ar    1  UNL1        0.0001
      8 C          62.1366   86.2838    8.7988 C.ar    1  UNL1        0.0000
      9 C          61.5550   86.7909   10.0851 C.ar    1  UNL1        0.0001
     10 C          61.8405   86.0740   11.3714 C.ar    1  UNL1        0.0030
     11 C          62.7074   84.8500   11.3714 C.ar    1  UNL1        0.0340
     12 C          63.3046   84.8956   15.1217 C.3     1  UNL1        0.2358
     13 C          64.5160   85.7669   14.9692 C.3     1  UNL1        0.1697
     14 O          65.8800   85.1479   14.8901 O.3     1  UNL1       -0.3793
     15 H          66.5467   85.8458   14.7936 H       1  UNL1        0.2106
     16 C          64.3634   87.2574   14.8959 C.3     1  UNL1        0.1020
     17 N          63.8369   87.8968   13.6453 N.3     1  UNL1       -0.2964
     18 H          64.3690   87.5053   12.8681 H       1  UNL1        0.1233
     19 C          62.9771   90.0650   12.5011 C.3     1  UNL1        0.0171
     20 C          63.8784   89.3882   13.4908 C.3     1  UNL1        0.0541
     21 C          64.8212   90.2027   14.3260 C.3     1  UNL1        0.0171
@<TRIPOS>BOND
     1    19    20    1
     2    20    21    1
     3    20    17    1
     4    17    16    1
     5    16    13    1
     6    13    14    1
     7    13    12    1
     8    12     1    1
     9     1     2    1
    10     2     3   ar
    11     3     4   ar
    12     4     5   ar
    13     5     6   ar
    14     6     7   ar
    15     7     8   ar
    16     8     9   ar
    17     9    10   ar
    18    10    11   ar
    19    11     2   ar
    20    11     6   ar
    21    17    18    1
    22    14    15    1
@<TRIPOS>MOLECULE
*****
 21 22 0 0 0
SMALL
GASTEIGER

@<TRIPOS>ATOM
      1 O          60.9103   86.8821   11.5643 O.3     1  UNL1       -0.4728
      2 C          61.7406   86.0695   10.6155 C.ar    1  UNL1        0.1386
      3 C          61.7108   86.3701    9.1463 C.ar    1  UNL1        0.0369
      4 C          62.5412   85.5574    8.1975 C.ar    1  UNL1        0.0031
      5 C          63.4012   84.4442    8.7179 C.ar    1  UNL1        0.0002
      6 C          63.4310   84.1435   10.1872 C.ar    1  UNL1        0.0029
      7 C          64.2911   83.0303   10.7077 C.ar    1  UNL1        0.0001
      8 C          64.3208   82.7297   12.1769 C.ar    1  UNL1        0.0000
      9 C          63.4905   83.5423   13.1257 C.ar    1  UNL1        0.0001
     10 C          62.6304   84.6556   12.6053 C.ar    1  UNL1        0.0030
     11 C          62.6007   84.9562   11.1360 C.ar    1  UNL1        0.0340
     12 C          60.2802   88.1625   11.1020 C.3     1  UNL1        0.2358
     13 C          60.8437   89.4793   11.5476 C.3     1  UNL1        0.1697
     14 O          59.9220   90.6121   11.8900 O.3     1  UNL1       -0.3793
     15 H          60.4444   91.3845   12.1570 H       1  UNL1        0.2106
     16 C          62.3288   89.6633   11.6507 C.3     1  UNL1        0.1020
     17 N          63.1522   88.6889   12.4398 N.3     1  UNL1       -0.2964
     18 H          62.5120   87.9732   12.7838 H       1  UNL1        0.1233
     19 C          64.3233   88.1984   14.7065 C.3     1  UNL1        0.0171
     20 C          63.9473   89.1622   13.6204 C.3     1  UNL1        0.0541
     21 C          64.3663   90.5994   13.7148 C.3     1  UNL1        0.0171
@<TRIPOS>BOND
     1    19    20    1
     2    20    21    1
     3    20    17    1
     4    17    16    1
     5    16    13    1
     6    13    14    1
     7    13    12    1
     8    12     1    1
     9     1     2    1
    10     2     3   ar
    11     3     4   ar
    12     4     5   ar
    13     5     6   ar
    14     6     7   ar
    15     7     8   ar
    16     8     9   ar
    17     9    10   ar
    18    10    11   ar
    19    11     2   ar
    20    11     6   ar
    21    17    18    1
    22    14    15    1
@<TRIPOS>MOLECULE
*****
 21 22 0 0 0
SMALL
GASTEIGER

@<TRIPOS>ATOM
      1 O          62.4403   84.9737   13.0234 O.3     1  UNL1       -0.4728
      2 C          62.6226   84.9027   11.5362 C.ar    1  UNL1        0.1386
      3 C          63.5652   83.8979   10.9432 C.ar    1  UNL1        0.0369
      4 C          63.7474   83.8270    9.4560 C.ar    1  UNL1        0.0031
      5 C          62.9871   84.7609    8.5618 C.ar    1  UNL1        0.0002
      6 C          62.0444   85.7658    9.1548 C.ar    1  UNL1        0.0029
      7 C          61.2841   86.6997    8.2606 C.ar    1  UNL1        0.0001
      8 C          60.3415   87.7046    8.8537 C.ar    1  UNL1        0.0000
      9 C          60.1592   87.7755   10.3408 C.ar    1  UNL1        0.0001
     10 C          60.9196   86.8416   11.2350 C.ar    1  UNL1        0.0030
     11 C          61.8622   85.8367   10.6420 C.ar    1  UNL1        0.0340
     12 C          63.5888   85.3734   13.9015 C.3     1  UNL1        0.2358
     13 C          64.5071   84.3262   14.4584 C.3     1  UNL1        0.1697
     14 O          65.9906   84.4580   14.2803 O.3     1  UNL1       -0.3793
     15 H          66.4346   83.7028   14.6966 H       1  UNL1        0.2106
     16 C          63.9418   83.1471   15.1934 C.3     1  UNL1        0.1020
     17 N          62.5188   82.7318   14.9635 N.3     1  UNL1       -0.2964
     18 H          62.1287   82.4995   15.8768 H       1  UNL1        0.1233
     19 C          60.8588   80.9315   14.0957 C.3     1  UNL1        0.0171
     20 C          62.2116   81.5783   14.0552 C.3     1  UNL1        0.0541
     21 C          63.2571   81.0716   13.1065 C.3     1  UNL1        0.0171
@<TRIPOS>BOND
     1    19    20    1
     2    20    21    1
     3    20    17    1
     4    17    16    1
     5    16    13    1
     6    13    14    1
     7    13    12    1
     8    12     1    1
     9     1     2    1
    10     2     3   ar
    11     3     4   ar
    12     4     5   ar
    13     5     6   ar
    14     6     7   ar
    15     7     8   ar
    16     8     9   ar
    17     9    10   ar
    18    10    11   ar
    19    11     2   ar
    20    11     6   ar
    21    17    18    1
    22    14    15    1
@<TRIPOS>MOLECULE
*****
 21 22 0 0 0
SMALL
GASTEIGER

@<TRIPOS>ATOM
      1 O          63.3744   85.9367   13.2783 O.3     1  UNL1       -0.4728
      2 C          62.7471   86.4320   12.0090 C.ar    1  UNL1        0.1386
      3 C          62.0985   85.4633   11.0652 C.ar    1  UNL1        0.0369
      4 C          61.4712   85.9587    9.7959 C.ar    1  UNL1        0.0031
      5 C          61.4925   87.4228    9.4704 C.ar    1  UNL1        0.0002
      6 C          62.1412   88.3916   10.4142 C.ar    1  UNL1        0.0029
      7 C          62.1626   89.8556   10.0887 C.ar    1  UNL1        0.0001
      8 C          62.8112   90.8243   11.0325 C.ar    1  UNL1        0.0000
      9 C          63.4385   90.3290   12.3018 C.ar    1  UNL1        0.0001
     10 C          63.4171   88.8649   12.6273 C.ar    1  UNL1        0.0030
     11 C          62.7685   87.8962   11.6835 C.ar    1  UNL1        0.0340
     12 C          63.3775   84.4696   13.5905 C.3     1  UNL1        0.2358
     13 C          62.8141   83.9783   14.8910 C.3     1  UNL1        0.1697
     14 O          62.4111   82.5411   15.0386 O.3     1  UNL1       -0.3793
     15 H          62.0694   82.3914   15.9340 H       1  UNL1        0.2106
     16 C          62.6538   84.9244   16.0440 C.3     1  UNL1        0.1020
     17 N          63.3732   86.2406   16.0397 N.3     1  UNL1       -0.2964
     18 H          64.3681   86.0327   16.1263 H       1  UNL1        0.1233
     19 C          63.1136   88.7310   16.7329 C.3     1  UNL1        0.0171
     20 C          63.0545   87.2730   17.0802 C.3     1  UNL1        0.0541
     21 C          62.6767   86.8473   18.4680 C.3     1  UNL1        0.0171
@<TRIPOS>BOND
     1    19    20    1
     2    20    21    1
     3    20    17    1
     4    17    16    1
     5    16    13    1
     6    13    14    1
     7    13    12    1
     8    12     1    1
     9     1     2    1
    10     2     3   ar
    11     3     4   ar
    12     4     5   ar
    13     5     6   ar
    14     6     7   ar
    15     7     8   ar
    16     8     9   ar
    17     9    10   ar
    18    10    11   ar
    19    11     2   ar
    20    11     6   ar
    21    17    18    1
    22    14    15    1
@<TRIPOS>MOLECULE
*****
 21 22 0 0 0
SMALL
GASTEIGER

@<TRIPOS>ATOM
      1 O          61.8557   87.0653   11.8537 O.3     1  UNL1       -0.4728
      2 C          62.3927   86.0932   10.8454 C.ar    1  UNL1        0.1386
      3 C          62.3230   86.4152    9.3820 C.ar    1  UNL1        0.0369
      4 C          62.8600   85.4431    8.3738 C.ar    1  UNL1        0.0031
      5 C          63.4667   84.1490    8.8288 C.ar    1  UNL1        0.0002
      6 C          63.5365   83.8269   10.2922 C.ar    1  UNL1        0.0029
      7 C          64.1432   82.5328   10.7472 C.ar    1  UNL1        0.0001
      8 C          64.2129   82.2108   12.2106 C.ar    1  UNL1        0.0000
      9 C          63.6759   83.1828   13.2189 C.ar    1  UNL1        0.0001
     10 C          63.0692   84.4770   12.7638 C.ar    1  UNL1        0.0030
     11 C          62.9994   84.7990   11.3005 C.ar    1  UNL1        0.0340
     12 C          61.6198   88.4948   11.4655 C.3     1  UNL1        0.2358
     13 C          60.2209   88.9939   11.2556 C.3     1  UNL1        0.1697
     14 O          59.1237   88.5630   12.1832 O.3     1  UNL1       -0.3793
     15 H          58.2886   88.9731   11.9088 H       1  UNL1        0.2106
     16 C          59.9192   89.9239   10.1179 C.3     1  UNL1        0.1020
     17 N          60.4763   89.6450    8.7534 N.3     1  UNL1       -0.2964
     18 H          60.7085   90.5481    8.3400 H       1  UNL1        0.1233
     19 C          59.2950   89.5605    6.4409 C.3     1  UNL1        0.0171
     20 C          59.6504   88.9057    7.7428 C.3     1  UNL1        0.0541
     21 C          59.1799   87.5116    8.0342 C.3     1  UNL1        0.0171
@<TRIPOS>BOND
     1    19    20    1
     2    20    21    1
     3    20    17    1
     4    17    16    1
     5    16    13    1
     6    13    14    1
     7    13    12    1
     8    12     1    1
     9     1     2    1
    10     2     3   ar
    11     3     4   ar
    12     4     5   ar
    13     5     6   ar
    14     6     7   ar
    15     7     8   ar
    16     8     9   ar
    17     9    10   ar
    18    10    11   ar
    19    11     2   ar
    20    11     6   ar
    21    17    18    1
    22    14    15    1
@<TRIPOS>MOLECULE
*****
 21 22 0 0 0
SMALL
GASTEIGER

@<TRIPOS>ATOM
      1 O          62.5376   85.6678   12.3204 O.3     1  UNL1       -0.4728
      2 C          62.0261   86.5688   11.2357 C.ar    1  UNL1        0.1386
      3 C          61.1852   86.0066   10.1281 C.ar    1  UNL1        0.0369
      4 C          60.6737   86.9076    9.0434 C.ar    1  UNL1        0.0031
      5 C          61.0032   88.3708    9.0662 C.ar    1  UNL1        0.0002
      6 C          61.8441   88.9330   10.1739 C.ar    1  UNL1        0.0029
      7 C          62.1736   90.3962   10.1967 C.ar    1  UNL1        0.0001
      8 C          63.0145   90.9584   11.3043 C.ar    1  UNL1        0.0000
      9 C          63.5260   90.0574   12.3890 C.ar    1  UNL1        0.0001
     10 C          63.1965   88.5942   12.3661 C.ar    1  UNL1        0.0030
     11 C          62.3556   88.0320   11.2586 C.ar    1  UNL1        0.0340
     12 C          62.9369   84.2583   11.9984 C.3     1  UNL1        0.2358
     13 C          64.2152   83.6969   12.5471 C.3     1  UNL1        0.1697
     14 O          65.0420   82.7622   11.7149 O.3     1  UNL1       -0.3793
     15 H          65.8290   82.4946   12.2147 H       1  UNL1        0.2106
     16 C          64.6666   84.0704   13.9280 C.3     1  UNL1        0.1020
     17 N          63.6611   84.4985   14.9555 N.3     1  UNL1       -0.2964
     18 H          62.7509   84.4972   14.4953 H       1  UNL1        0.1233
     19 C          63.1727   86.0569   16.9761 C.3     1  UNL1        0.0171
     20 C          63.8016   85.8291   15.6335 C.3     1  UNL1        0.0541
     21 C          64.5710   86.9319   14.9688 C.3     1  UNL1        0.0171
@<TRIPOS>BOND
     1    19    20    1
     2    20    21    1
     3    20    17    1
     4    17    16    1
     5    16    13    1
     6    13    14    1
     7    13    12    1
     8    12     1    1
     9     1     2    1
    10     2     3   ar
    11     3     4   ar
    12     4     5   ar
    13     5     6   ar
    14     6     7   ar
    15     7     8   ar
    16     8     9   ar
    17     9    10   ar
    18    10    11   ar
    19    11     2   ar
    20    11     6   ar
    21    17    18    1
    22    14    15    1
@<TRIPOS>MOLECULE
*****
 21 22 0 0 0
SMALL
GASTEIGER

@<TRIPOS>ATOM
      1 O          63.5743   86.3441   13.5865 O.3     1  UNL1       -0.4728
      2 C          63.7567   87.8324   13.5446 C.ar    1  UNL1        0.1386
      3 C          64.4560   88.5343   14.6707 C.ar    1  UNL1        0.0369
      4 C          64.6384   90.0225   14.6289 C.ar    1  UNL1        0.0031
      5 C          64.1216   90.8089   13.4608 C.ar    1  UNL1        0.0002
      6 C          63.4223   90.1070   12.3345 C.ar    1  UNL1        0.0029
      7 C          62.9054   90.8934   11.1665 C.ar    1  UNL1        0.0001
      8 C          62.2061   90.1915   10.0403 C.ar    1  UNL1        0.0000
      9 C          62.0237   88.7033   10.0822 C.ar    1  UNL1        0.0001
     10 C          62.5405   87.9169   11.2503 C.ar    1  UNL1        0.0030
     11 C          63.2398   88.6188   12.3764 C.ar    1  UNL1        0.0340
     12 C          63.9307   85.5794   14.8267 C.3     1  UNL1        0.2358
     13 C          63.5858   84.1236   14.9353 C.3     1  UNL1        0.1697
     14 O          62.5333   83.6725   15.9042 O.3     1  UNL1       -0.3793
     15 H          62.4341   82.7092   15.8485 H       1  UNL1        0.2106
     16 C          64.2934   83.1190   14.0750 C.3     1  UNL1        0.1020
     17 N          64.6383   83.4580   12.6551 N.3     1  UNL1       -0.2964
     18 H          64.5018   84.4634   12.5510 H       1  UNL1        0.1233
     19 C          64.2182   83.1685   10.1076 C.3     1  UNL1        0.0171
     20 C          63.8995   82.8016   11.5267 C.3     1  UNL1        0.0541
     21 C          62.8421   81.7782   11.8174 C.3     1  UNL1        0.0171
@<TRIPOS>BOND
     1    19    20    1
     2    20    21    1
     3    20    17    1
     4    17    16    1
     5    16    13    1
     6    13    14    1
     7    13    12    1
     8    12     1    1
     9     1     2    1
    10     2     3   ar
    11     3     4   ar
    12     4     5   ar
    13     5     6   ar
    14     6     7   ar
    15     7     8   ar
    16     8     9   ar
    17     9    10   ar
    18    10    11   ar
    19    11     2   ar
    20    11     6   ar
    21    17    18    1
    22    14    15    1
@<TRIPOS>MOLECULE
*****
 21 22 0 0 0
SMALL
GASTEIGER

@<TRIPOS>ATOM
      1 O          63.0225   86.0746   12.8531 O.3     1  UNL1       -0.4728
      2 C          63.4485   87.4829   13.1452 C.ar    1  UNL1        0.1386
      3 C          64.1914   87.7946   14.4105 C.ar    1  UNL1        0.0369
      4 C          64.6174   89.2028   14.7025 C.ar    1  UNL1        0.0031
      5 C          64.3005   90.2994   13.7294 C.ar    1  UNL1        0.0002
      6 C          63.5576   89.9877   12.4641 C.ar    1  UNL1        0.0029
      7 C          63.2407   91.0843   11.4909 C.ar    1  UNL1        0.0001
      8 C          62.4978   90.7726   10.2256 C.ar    1  UNL1        0.0000
      9 C          62.0718   89.3643    9.9336 C.ar    1  UNL1        0.0001
     10 C          62.3887   88.2677   10.9067 C.ar    1  UNL1        0.0030
     11 C          63.1316   88.5794   12.1720 C.ar    1  UNL1        0.0340
     12 C          63.8619   84.9241   13.3241 C.3     1  UNL1        0.2358
     13 C          63.6150   84.3188   14.6742 C.3     1  UNL1        0.1697
     14 O          64.5954   84.5427   15.7871 O.3     1  UNL1       -0.3793
     15 H          64.2879   84.0860   16.5857 H       1  UNL1        0.2106
     16 C          62.3877   83.4897   14.9113 C.3     1  UNL1        0.1020
     17 N          62.5008   81.9984   15.0265 N.3     1  UNL1       -0.2964
     18 H          63.4968   81.7791   15.0431 H       1  UNL1        0.1233
     19 C          60.4491   80.6886   14.1183 C.3     1  UNL1        0.0171
     20 C          61.8805   81.1164   13.9838 C.3     1  UNL1        0.0541
     21 C          62.6915   80.6622   12.8066 C.3     1  UNL1        0.0171
@<TRIPOS>BOND
     1    19    20    1
     2    20    21    1
     3    20    17    1
     4    17    16    1
     5    16    13    1
     6    13    14    1
     7    13    12    1
     8    12     1    1
     9     1     2    1
    10     2     3   ar
    11     3     4   ar
    12     4     5   ar
    13     5     6   ar
    14     6     7   ar
    15     7     8   ar
    16     8     9   ar
    17     9    10   ar
    18    10    11   ar
    19    11     2   ar
    20    11     6   ar
    21    17    18    1
    22    14    15    1
@<TRIPOS>MOLECULE
*****
 21 22 0 0 0
SMALL
GASTEIGER

@<TRIPOS>ATOM
      1 O          62.4561   85.2612   12.7193 O.3     1  UNL1       -0.4728
      2 C          62.1474   86.1506   11.5515 C.ar    1  UNL1        0.1386
      3 C          61.4412   85.5939   10.3509 C.ar    1  UNL1        0.0369
      4 C          61.1326   86.4833    9.1831 C.ar    1  UNL1        0.0031
      5 C          61.5301   87.9292    9.2158 C.ar    1  UNL1        0.0002
      6 C          62.2364   88.4859   10.4164 C.ar    1  UNL1        0.0029
      7 C          62.6339   89.9319   10.4492 C.ar    1  UNL1        0.0001
      8 C          63.3401   90.4885   11.6497 C.ar    1  UNL1        0.0000
      9 C          63.6488   89.5992   12.8176 C.ar    1  UNL1        0.0001
     10 C          63.2512   88.1532   12.7848 C.ar    1  UNL1        0.0030
     11 C          62.5450   87.5966   11.5842 C.ar    1  UNL1        0.0340
     12 C          63.8197   84.6521   12.8583 C.3     1  UNL1        0.2358
     13 C          64.3414   84.2829   14.2154 C.3     1  UNL1        0.1697
     14 O          65.4223   85.1048   14.8525 O.3     1  UNL1       -0.3793
     15 H          65.6421   84.7327   15.7209 H       1  UNL1        0.2106
     16 C          63.7821   83.0916   14.9352 C.3     1  UNL1        0.1020
     17 N          62.3428   82.7117   14.7510 N.3     1  UNL1       -0.2964
     18 H          61.9641   82.5330   15.6811 H       1  UNL1        0.1233
     19 C          62.9097   81.0759   12.8138 C.3     1  UNL1        0.0171
     20 C          61.9820   81.5289   13.9020 C.3     1  UNL1        0.0541
     21 C          60.6935   80.7991   14.1412 C.3     1  UNL1        0.0171
@<TRIPOS>BOND
     1    19    20    1
     2    20    21    1
     3    20    17    1
     4    17    16    1
     5    16    13    1
     6    13    14    1
     7    13    12    1
     8    12     1    1
     9     1     2    1
    10     2     3   ar
    11     3     4   ar
    12     4     5   ar
    13     5     6   ar
    14     6     7   ar
    15     7     8   ar
    16     8     9   ar
    17     9    10   ar
    18    10    11   ar
    19    11     2   ar
    20    11     6   ar
    21    17    18    1
    22    14    15    1
