@<TRIPOS>MOLECULE
*****
 61 67 0 0 0
SMALL
GASTEIGER

@<TRIPOS>ATOM
      1 N          62.2282   94.8647   -3.4757 N.3     1  UNL1       -0.1862
      2 C          61.1430   94.4593   -4.4286 C.3     1  UNL1        0.1775
      3 C          59.8405   93.9336   -3.9022 C.2     1  UNL1        0.2452
      4 O          58.7553   93.5282   -4.8552 O.2     1  UNL1       -0.2732
      5 N          59.6231   93.8133   -2.4230 N.am    1  UNL1       -0.2541
      6 C          58.3206   93.2875   -1.8966 C.3     1  UNL1        0.1577
      7 C          58.1033   93.1672   -0.4174 C.2     1  UNL1        0.2445
      8 O          56.8008   92.6415    0.1090 O.2     1  UNL1       -0.2731
      9 N          59.1885   93.5726    0.5356 N.am    1  UNL1       -0.2705
     10 C          60.4910   94.0984    0.0092 C.3     1  UNL1        0.1359
     11 C          60.7083   94.2187   -1.4701 C.3     1  UNL1        0.1908
     12 N          62.0108   94.7444   -1.9965 N.am    1  UNL1       -0.1863
     13 C          63.0960   95.1498   -1.0435 C.2     1  UNL1        0.3191
     14 O          62.8786   95.0295    0.4357 O.2     1  UNL1       -0.2512
     15 N          64.3985   95.6755   -1.5699 N.am    1  UNL1       -0.2836
     16 H          64.5412   95.7545   -2.5408 H       1  UNL1        0.1513
     17 C          63.5307   95.3904   -4.0021 C.3     1  UNL1        0.1188
     18 C          64.6103   94.3262   -6.1120 C.2     1  UNL1       -0.0034
     19 C          64.5239   94.4513   -4.6197 C.2     1  UNL1       -0.0071
     20 C          57.2355   92.8821   -2.8495 C.3     1  UNL1        0.0556
     21 C          56.1349   93.8441   -3.1861 C.ar    1  UNL1       -0.0198
     22 C          55.2728   94.4087   -2.0961 C.ar    1  UNL1       -0.0011
     23 C          54.1722   95.3707   -2.4327 C.ar    1  UNL1        0.0363
     24 C          53.9338   95.7682   -3.8593 C.ar    1  UNL1        0.1337
     25 O          52.8333   96.7302   -4.1959 O.3     1  UNL1       -0.5055
     26 C          54.7960   95.2037   -4.9493 C.ar    1  UNL1        0.0363
     27 C          55.8965   94.2417   -4.6127 C.ar    1  UNL1       -0.0011
     28 H          52.2947   97.0829   -3.5150 H       1  UNL1        0.2922
     29 C          58.9711   93.4523    2.0149 C.3     1  UNL1        0.1217
     30 C          59.8482   92.5496    2.8309 C.ar    1  UNL1        0.0135
     31 C          61.3070   92.4256    2.5043 C.ar    1  UNL1       -0.0012
     32 C          62.1841   91.5229    3.3202 C.ar    1  UNL1       -0.0002
     33 C          61.6025   90.7442    4.4627 C.ar    1  UNL1        0.0016
     34 C          60.1437   90.8682    4.7893 C.ar    1  UNL1        0.0214
     35 C          59.2944   90.2298    5.8480 C.ar    1  UNL1        0.0722
     36 C          57.8924   90.7379    5.6865 C.ar    1  UNL1        0.0805
     37 N          57.8752   91.6903    4.5279 N.ar    1  UNL1       -0.3241
     38 C          56.6770   92.4321    4.0140 C.3     1  UNL1        0.1305
     39 C          59.2666   91.7709    3.9733 C.ar    1  UNL1        0.0577
     40 C          59.7646   89.2544    6.8862 C.2     1  UNL1        0.2510
     41 O          59.7234   87.7816    6.6048 O.2     1  UNL1       -0.2698
     42 N          60.2760   89.7519    8.2057 N.am    1  UNL1       -0.2803
     43 H          60.3031   90.7185    8.3903 H       1  UNL1        0.1552
     44 C          60.7462   88.7766    9.2438 C.ar    1  UNL1        0.0507
     45 C          60.1395   88.7910   10.6156 C.ar    1  UNL1        0.0178
     46 C          60.6097   87.8157   11.6538 C.ar    1  UNL1        0.0382
     47 C          61.6864   86.8262   11.3202 C.ar    1  UNL1        0.1383
     48 C          62.2931   86.8118    9.9484 C.ar    1  UNL1        0.0382
     49 C          61.8230   87.7871    8.9102 C.ar    1  UNL1        0.0178
     50 O          62.1566   85.8509   12.3583 O.3     1  UNL1       -0.4826
     51 C          62.6431   84.4931   11.9462 C.3     1  UNL1        0.1334
     52 C          62.6951   84.0747   13.3857 C.3     1  UNL1        0.0436
     53 C          62.5911   84.9116   10.5066 C.3     1  UNL1        0.0436
     54 C          63.1296   83.1354   11.5339 C.3     1  UNL1        0.0436
     55 C          65.4837   96.0809   -0.6170 C.3     1  UNL1        0.1177
     56 C          65.3591   95.7587    0.8427 C.ar    1  UNL1       -0.0025
     57 C          65.1518   94.3397    1.2824 C.ar    1  UNL1       -0.0026
     58 C          65.0272   94.0174    2.7421 C.ar    1  UNL1       -0.0003
     59 C          65.1098   95.1142    3.7620 C.ar    1  UNL1       -0.0000
     60 C          65.3171   96.5333    3.3223 C.ar    1  UNL1       -0.0003
     61 C          65.4417   96.8555    1.8626 C.ar    1  UNL1       -0.0026
@<TRIPOS>BOND
     1    18    19    2
     2    19    17    1
     3    17     1    1
     4     1     2    1
     5     2     3    1
     6     3     4    2
     7     3     5   am
     8     5     6    1
     9     6    20    1
    10    20    21    1
    11    21    22   ar
    12    22    23   ar
    13    23    24   ar
    14    24    25    1
    15    24    26   ar
    16    26    27   ar
    17     6     7    1
    18     7     8    2
    19     7     9   am
    20     9    29    1
    21    29    30    1
    22    30    31   ar
    23    31    32   ar
    24    32    33   ar
    25    33    34   ar
    26    34    35   ar
    27    35    40    1
    28    40    41    2
    29    40    42   am
    30    42    44    1
    31    44    45   ar
    32    45    46   ar
    33    46    47   ar
    34    47    50    1
    35    50    51    1
    36    51    52    1
    37    51    53    1
    38    51    54    1
    39    47    48   ar
    40    48    49   ar
    41    35    36   ar
    42    36    37   ar
    43    37    38    1
    44    37    39   ar
    45     9    10    1
    46    11    10    1
    47    11    12    1
    48    12    13   am
    49    13    14    2
    50    13    15   am
    51    15    55    1
    52    55    56    1
    53    56    57   ar
    54    57    58   ar
    55    58    59   ar
    56    59    60   ar
    57    60    61   ar
    58    12     1    1
    59    61    56   ar
    60    11     5    1
    61    27    21   ar
    62    39    30   ar
    63    39    34   ar
    64    49    44   ar
    65    25    28    1
    66    42    43    1
    67    15    16    1
@<TRIPOS>MOLECULE
*****
 61 67 0 0 0
SMALL
GASTEIGER

@<TRIPOS>ATOM
      1 N          62.3343   94.1880   -3.4365 N.3     1  UNL1       -0.1862
      2 C          61.2309   94.2418   -4.4512 C.3     1  UNL1        0.1775
      3 C          59.8056   94.0627   -4.0195 C.2     1  UNL1        0.2452
      4 O          58.7022   94.1165   -5.0342 O.2     1  UNL1       -0.2732
      5 N          59.4836   93.8299   -2.5731 N.am    1  UNL1       -0.2541
      6 C          58.0583   93.6509   -2.1414 C.3     1  UNL1        0.1577
      7 C          57.7363   93.4181   -0.6950 C.2     1  UNL1        0.2445
      8 O          56.3110   93.2390   -0.2633 O.2     1  UNL1       -0.2731
      9 N          58.8397   93.3643    0.3198 N.am    1  UNL1       -0.2705
     10 C          60.2651   93.5433   -0.1119 C.3     1  UNL1        0.1359
     11 C          60.5870   93.7761   -1.5584 C.3     1  UNL1        0.1908
     12 N          62.0123   93.9552   -1.9901 N.am    1  UNL1       -0.1863
     13 C          63.1157   93.9014   -0.9753 C.2     1  UNL1        0.3191
     14 O          62.7938   93.6686    0.4711 O.2     1  UNL1       -0.2512
     15 N          64.5411   94.0804   -1.4070 N.am    1  UNL1       -0.2836
     16 H          64.7524   94.2332   -2.3564 H       1  UNL1        0.1513
     17 C          63.7596   94.3670   -3.8682 C.3     1  UNL1        0.1188
     18 C          64.2208   92.5531   -5.6701 C.2     1  UNL1       -0.0034
     19 C          64.5506   93.1878   -4.3516 C.2     1  UNL1       -0.0071
     20 C          56.9549   93.7047   -3.1560 C.3     1  UNL1        0.0556
     21 C          56.2908   92.4385   -3.6097 C.ar    1  UNL1       -0.0198
     22 C          55.8915   92.2741   -5.0462 C.ar    1  UNL1       -0.0011
     23 C          55.2274   91.0080   -5.4998 C.ar    1  UNL1        0.0363
     24 C          54.9626   89.9062   -4.5170 C.ar    1  UNL1        0.1337
     25 O          54.2985   88.6400   -4.9707 O.3     1  UNL1       -0.5055
     26 C          55.3619   90.0706   -3.0805 C.ar    1  UNL1        0.0363
     27 C          56.0260   91.3367   -2.6268 C.ar    1  UNL1       -0.0011
     28 H          54.0490   88.5374   -5.8680 H       1  UNL1        0.2922
     29 C          58.5178   93.1315    1.7662 C.3     1  UNL1        0.1217
     30 C          59.5284   92.4819    2.6644 C.ar    1  UNL1        0.0135
     31 C          60.9874   92.5471    2.3224 C.ar    1  UNL1       -0.0012
     32 C          61.9981   91.8976    3.2206 C.ar    1  UNL1       -0.0002
     33 C          61.5497   91.1829    4.4607 C.ar    1  UNL1        0.0016
     34 C          60.0906   91.1177    4.8028 C.ar    1  UNL1        0.0214
     35 C          59.3556   90.4888    5.9491 C.ar    1  UNL1        0.0722
     36 C          57.8907   90.7495    5.7594 C.ar    1  UNL1        0.0805
     37 N          57.7204   91.5397    4.4959 N.ar    1  UNL1       -0.3241
     38 C          56.4189   92.0182    3.9239 C.3     1  UNL1        0.1305
     39 C          59.0800   91.7672    3.9046 C.ar    1  UNL1        0.0577
     40 C          59.9765   89.7318    7.0857 C.2     1  UNL1        0.2510
     41 O          59.9088   88.2336    7.1148 O.2     1  UNL1       -0.2698
     42 N          60.6651   90.4731    8.1930 N.am    1  UNL1       -0.2803
     43 H          60.7096   91.4565    8.1739 H       1  UNL1        0.1552
     44 C          61.2860   89.7164    9.3295 C.ar    1  UNL1        0.0507
     45 C          60.6264   88.4750    9.8530 C.ar    1  UNL1        0.0178
     46 C          61.2472   87.7181   10.9895 C.ar    1  UNL1        0.0382
     47 C          62.5277   88.2026   11.6026 C.ar    1  UNL1        0.1383
     48 C          63.1872   89.4440   11.0791 C.ar    1  UNL1        0.0382
     49 C          62.5664   90.2008    9.9426 C.ar    1  UNL1        0.0178
     50 O          63.1485   87.4458   12.7391 O.3     1  UNL1       -0.4826
     51 C          63.7743   88.1890   13.8820 C.3     1  UNL1        0.1334
     52 C          63.1962   89.4726   13.3640 C.3     1  UNL1        0.0436
     53 C          64.3525   86.9055   14.3999 C.3     1  UNL1        0.0436
     54 C          64.4002   88.9321   15.0249 C.3     1  UNL1        0.0436
     55 C          65.6444   94.0266   -0.3923 C.3     1  UNL1        0.1177
     56 C          65.4810   94.7146    0.9306 C.ar    1  UNL1       -0.0025
     57 C          65.8259   96.1679    1.0678 C.ar    1  UNL1       -0.0026
     58 C          65.6624   96.8558    2.3907 C.ar    1  UNL1       -0.0003
     59 C          65.1541   96.0904    3.5764 C.ar    1  UNL1       -0.0000
     60 C          64.8092   94.6370    3.4391 C.ar    1  UNL1       -0.0003
     61 C          64.9727   93.9491    2.1162 C.ar    1  UNL1       -0.0026
@<TRIPOS>BOND
     1    18    19    2
     2    19    17    1
     3    17     1    1
     4     1     2    1
     5     2     3    1
     6     3     4    2
     7     3     5   am
     8     5     6    1
     9     6    20    1
    10    20    21    1
    11    21    22   ar
    12    22    23   ar
    13    23    24   ar
    14    24    25    1
    15    24    26   ar
    16    26    27   ar
    17     6     7    1
    18     7     8    2
    19     7     9   am
    20     9    29    1
    21    29    30    1
    22    30    31   ar
    23    31    32   ar
    24    32    33   ar
    25    33    34   ar
    26    34    35   ar
    27    35    40    1
    28    40    41    2
    29    40    42   am
    30    42    44    1
    31    44    45   ar
    32    45    46   ar
    33    46    47   ar
    34    47    50    1
    35    50    51    1
    36    51    52    1
    37    51    53    1
    38    51    54    1
    39    47    48   ar
    40    48    49   ar
    41    35    36   ar
    42    36    37   ar
    43    37    38    1
    44    37    39   ar
    45     9    10    1
    46    11    10    1
    47    11    12    1
    48    12    13   am
    49    13    14    2
    50    13    15   am
    51    15    55    1
    52    55    56    1
    53    56    57   ar
    54    57    58   ar
    55    58    59   ar
    56    59    60   ar
    57    60    61   ar
    58    12     1    1
    59    61    56   ar
    60    11     5    1
    61    27    21   ar
    62    39    30   ar
    63    39    34   ar
    64    49    44   ar
    65    25    28    1
    66    42    43    1
    67    15    16    1
