@<TRIPOS>MOLECULE
*****
 27 30 0 0 0
SMALL
GASTEIGER

@<TRIPOS>ATOM
      1 N          63.2340   90.8471   13.1915 N.pl3   1  UNL1       -0.2671
      2 H          62.4685   91.3264   13.5835 H       1  UNL1        0.1565
      3 C          64.5909   91.4861   13.1762 C.ar    1  UNL1        0.1388
      4 C          65.5874   91.1563   14.2479 C.ar    1  UNL1        0.0552
      5 C          66.9443   91.7953   14.2326 C.ar    1  UNL1        0.1047
      6 N          67.3049   92.7641   13.1457 N.ar    1  UNL1       -0.2120
      7 C          66.3086   93.0939   12.0741 C.ar    1  UNL1        0.2215
      8 N          64.9515   92.4549   12.0893 N.ar    1  UNL1       -0.1985
      9 N          66.6691   94.0627   10.9871 N.pl3   1  UNL1       -0.2730
     10 C          66.4003   95.5273   11.1684 C.3     1  UNL1        0.1257
     11 C          66.7608   96.4961   10.0814 C.3     1  UNL1        0.1637
     12 O          67.3902   96.0003    8.8133 O.3     1  UNL1       -0.3501
     13 C          67.6589   94.5358    8.6320 C.3     1  UNL1        0.1637
     14 C          67.2984   93.5670    9.7190 C.3     1  UNL1        0.1257
     15 C          62.4865   87.6760   11.0817 C.ar    1  UNL1        0.1244
     16 C          62.5052   89.1671   11.2443 C.ar    1  UNL1        0.0785
     17 C          63.0432   89.4778   12.6096 C.ar    1  UNL1        0.2316
     18 O          63.3570   88.1787   13.2908 O.2     1  UNL1       -0.3381
     19 N          63.0129   87.0652   12.3465 N.ar    1  UNL1       -0.0754
     20 C          61.0952   85.4298    7.4391 C.ar    1  UNL1        0.1387
     21 C          60.1733   86.3962    8.1218 C.ar    1  UNL1        0.0370
     22 C          60.6371   87.1449    9.3360 C.ar    1  UNL1        0.0047
     23 C          62.0227   86.9273    9.8675 C.ar    1  UNL1        0.0212
     24 C          62.9446   85.9609    9.1848 C.ar    1  UNL1        0.0047
     25 C          62.4809   85.2122    7.9706 C.ar    1  UNL1        0.0370
     26 C          61.6349   84.0872    5.2813 C.3     1  UNL1        0.2525
     27 O          60.6315   84.6811    6.2249 O.3     1  UNL1       -0.4714
@<TRIPOS>BOND
     1    26    27    1
     2    27    20    1
     3    20    21   ar
     4    21    22   ar
     5    22    23   ar
     6    23    15    1
     7    15    16   ar
     8    16    17   ar
     9    17     1    1
    10     1     3    1
    11     3     4   ar
    12     4     5   ar
    13     5     6   ar
    14     6     7   ar
    15     7     9    1
    16     9    10    1
    17    10    11    1
    18    11    12    1
    19    12    13    1
    20    13    14    1
    21     7     8   ar
    22    17    18   ar
    23    18    19   ar
    24    23    24   ar
    25    24    25   ar
    26    25    20   ar
    27    19    15   ar
    28     8     3   ar
    29    14     9    1
    30     1     2    1
@<TRIPOS>MOLECULE
*****
 27 30 0 0 0
SMALL
GASTEIGER

@<TRIPOS>ATOM
      1 N          63.5568   85.8667   15.9411 N.pl3   1  UNL1       -0.2671
      2 H          63.6267   85.5161   16.8583 H       1  UNL1        0.1565
      3 C          63.4308   84.9206   14.7840 C.ar    1  UNL1        0.1388
      4 C          63.6945   83.4570   14.9797 C.ar    1  UNL1        0.0552
      5 C          63.5685   82.5109   13.8226 C.ar    1  UNL1        0.1047
      6 N          63.1787   83.0284   12.4698 N.ar    1  UNL1       -0.2120
      7 C          62.9149   84.4918   12.2739 C.ar    1  UNL1        0.2215
      8 N          63.0409   85.4381   13.4311 N.ar    1  UNL1       -0.1985
      9 N          62.5251   85.0093   10.9211 N.pl3   1  UNL1       -0.2730
     10 C          63.2979   84.5892    9.7061 C.3     1  UNL1        0.1257
     11 C          62.9081   85.1067    8.3533 C.3     1  UNL1        0.1637
     12 O          61.7454   86.0443    8.2154 O.3     1  UNL1       -0.3501
     13 C          60.9725   86.4644    9.4303 C.3     1  UNL1        0.1637
     14 C          61.3623   85.9469   10.7832 C.3     1  UNL1        0.1257
     15 C          64.1690   89.5387   14.8422 C.ar    1  UNL1        0.1244
     16 C          64.4980   88.0771   14.7691 C.ar    1  UNL1        0.0785
     17 C          63.5763   87.3472   15.7006 C.ar    1  UNL1        0.2316
     18 O          62.6776   88.3578   16.3495 O.2     1  UNL1       -0.3381
     19 N          63.0439   89.7122   15.8189 N.ar    1  UNL1       -0.0754
     20 C          66.2004   92.8259   12.5361 C.ar    1  UNL1        0.1387
     21 C          66.7765   92.3574   13.8394 C.ar    1  UNL1        0.0370
     22 C          66.0994   91.2616   14.6080 C.ar    1  UNL1        0.0047
     23 C          64.8461   90.6344   14.0735 C.ar    1  UNL1        0.0212
     24 C          64.2699   91.1029   12.7702 C.ar    1  UNL1        0.0047
     25 C          64.9471   92.1987   12.0016 C.ar    1  UNL1        0.0370
     26 C          66.0642   95.0298   11.1671 C.3     1  UNL1        0.2525
     27 O          66.8775   93.9216   11.7675 O.3     1  UNL1       -0.4714
@<TRIPOS>BOND
     1    26    27    1
     2    27    20    1
     3    20    21   ar
     4    21    22   ar
     5    22    23   ar
     6    23    15    1
     7    15    16   ar
     8    16    17   ar
     9    17     1    1
    10     1     3    1
    11     3     4   ar
    12     4     5   ar
    13     5     6   ar
    14     6     7   ar
    15     7     9    1
    16     9    10    1
    17    10    11    1
    18    11    12    1
    19    12    13    1
    20    13    14    1
    21     7     8   ar
    22    17    18   ar
    23    18    19   ar
    24    23    24   ar
    25    24    25   ar
    26    25    20   ar
    27    19    15   ar
    28     8     3   ar
    29    14     9    1
    30     1     2    1
@<TRIPOS>MOLECULE
*****
 27 30 0 0 0
SMALL
GASTEIGER

@<TRIPOS>ATOM
      1 N          61.2853   88.1207   10.5583 N.pl3   1  UNL1       -0.2671
      2 H          60.3036   88.1918   10.5791 H       1  UNL1        0.1565
      3 C          61.9363   86.7854   10.3506 C.ar    1  UNL1        0.1388
      4 C          62.4493   86.4040    8.9936 C.ar    1  UNL1        0.0552
      5 C          63.1003   85.0688    8.7859 C.ar    1  UNL1        0.1047
      6 N          63.2384   84.1149    9.9353 N.ar    1  UNL1       -0.2120
      7 C          62.7255   84.4961   11.2922 C.ar    1  UNL1        0.2215
      8 N          62.0744   85.8315   11.5000 N.ar    1  UNL1       -0.1985
      9 N          62.8636   83.5422   12.4416 N.pl3   1  UNL1       -0.2730
     10 C          62.7236   84.0394   13.8498 C.3     1  UNL1        0.1257
     11 C          62.8617   83.0855   14.9991 C.3     1  UNL1        0.1637
     12 O          63.1398   81.6344   14.7402 O.3     1  UNL1       -0.3501
     13 C          63.2798   81.1372   13.3320 C.3     1  UNL1        0.1637
     14 C          63.1417   82.0911   12.1826 C.3     1  UNL1        0.1257
     15 C          63.6866   90.9656   11.6564 C.ar    1  UNL1        0.1244
     16 C          63.0418   89.6318   11.8911 C.ar    1  UNL1        0.0785
     17 C          62.1300   89.3476   10.7344 C.ar    1  UNL1        0.2316
     18 O          62.2114   90.5059    9.7847 O.2     1  UNL1       -0.3381
     19 N          63.1734   91.5058   10.3545 N.ar    1  UNL1       -0.0754
     20 C          66.6418   92.9909   14.3794 C.ar    1  UNL1        0.1387
     21 C          66.4085   93.5238   12.9969 C.ar    1  UNL1        0.0370
     22 C          65.4234   92.8487   12.0892 C.ar    1  UNL1        0.0047
     23 C          64.6717   91.6407   12.5641 C.ar    1  UNL1        0.0212
     24 C          64.9050   91.1078   13.9466 C.ar    1  UNL1        0.0047
     25 C          65.8901   91.7829   14.8543 C.ar    1  UNL1        0.0370
     26 C          68.6968   92.8614   15.9638 C.3     1  UNL1        0.2525
     27 O          67.6269   93.6660   15.2871 O.3     1  UNL1       -0.4714
@<TRIPOS>BOND
     1    26    27    1
     2    27    20    1
     3    20    21   ar
     4    21    22   ar
     5    22    23   ar
     6    23    15    1
     7    15    16   ar
     8    16    17   ar
     9    17     1    1
    10     1     3    1
    11     3     4   ar
    12     4     5   ar
    13     5     6   ar
    14     6     7   ar
    15     7     9    1
    16     9    10    1
    17    10    11    1
    18    11    12    1
    19    12    13    1
    20    13    14    1
    21     7     8   ar
    22    17    18   ar
    23    18    19   ar
    24    23    24   ar
    25    24    25   ar
    26    25    20   ar
    27    19    15   ar
    28     8     3   ar
    29    14     9    1
    30     1     2    1
@<TRIPOS>MOLECULE
*****
 27 30 0 0 0
SMALL
GASTEIGER

@<TRIPOS>ATOM
      1 N          63.5177   90.9142   13.4474 N.pl3   1  UNL1       -0.2671
      2 H          62.7847   91.4140   13.8741 H       1  UNL1        0.1565
      3 C          64.8729   91.5422   13.3093 C.ar    1  UNL1        0.1388
      4 C          65.9594   91.2038   14.2866 C.ar    1  UNL1        0.0552
      5 C          67.3146   91.8319   14.1485 C.ar    1  UNL1        0.1047
      6 N          67.5832   92.7983   13.0333 N.ar    1  UNL1       -0.2120
      7 C          66.4968   93.1367   12.0561 C.ar    1  UNL1        0.2215
      8 N          65.1415   92.5086   12.1941 N.ar    1  UNL1       -0.1985
      9 N          66.7654   94.1031   10.9408 N.pl3   1  UNL1       -0.2730
     10 C          66.4481   95.5586   11.1169 C.3     1  UNL1        0.1257
     11 C          66.7167   96.5250   10.0016 C.3     1  UNL1        0.1637
     12 O          67.3026   96.0360    8.7103 O.3     1  UNL1       -0.3501
     13 C          67.6199   94.5806    8.5341 C.3     1  UNL1        0.1637
     14 C          67.3513   93.6142    9.6494 C.3     1  UNL1        0.1257
     15 C          63.2122   87.1038   12.7742 C.ar    1  UNL1        0.1244
     16 C          63.6239   88.2509   13.6487 C.ar    1  UNL1        0.0785
     17 C          63.2794   89.5246   12.9353 C.ar    1  UNL1        0.2316
     18 O          62.6549   89.1647   11.6198 O.2     1  UNL1       -0.3381
     19 N          62.6134   87.6686   11.5203 N.ar    1  UNL1       -0.0754
     20 C          63.6900   82.7352   13.7425 C.ar    1  UNL1        0.1387
     21 C          62.8777   83.1554   12.5536 C.ar    1  UNL1        0.0370
     22 C          62.7184   84.6116   12.2309 C.ar    1  UNL1        0.0047
     23 C          63.3715   85.6476   13.0970 C.ar    1  UNL1        0.0212
     24 C          64.1838   85.2274   14.2859 C.ar    1  UNL1        0.0047
     25 C          64.3431   83.7712   14.6086 C.ar    1  UNL1        0.0370
     26 C          62.8065   80.2948   13.6249 C.3     1  UNL1        0.2525
     27 O          63.8492   81.2790   14.0653 O.3     1  UNL1       -0.4714
@<TRIPOS>BOND
     1    26    27    1
     2    27    20    1
     3    20    21   ar
     4    21    22   ar
     5    22    23   ar
     6    23    15    1
     7    15    16   ar
     8    16    17   ar
     9    17     1    1
    10     1     3    1
    11     3     4   ar
    12     4     5   ar
    13     5     6   ar
    14     6     7   ar
    15     7     9    1
    16     9    10    1
    17    10    11    1
    18    11    12    1
    19    12    13    1
    20    13    14    1
    21     7     8   ar
    22    17    18   ar
    23    18    19   ar
    24    23    24   ar
    25    24    25   ar
    26    25    20   ar
    27    19    15   ar
    28     8     3   ar
    29    14     9    1
    30     1     2    1
@<TRIPOS>MOLECULE
*****
 27 30 0 0 0
SMALL
GASTEIGER

@<TRIPOS>ATOM
      1 N          62.1595   90.2982   11.3525 N.pl3   1  UNL1       -0.2671
      2 H          61.3419   90.8342   11.2366 H       1  UNL1        0.1565
      3 C          63.3950   90.9289   11.9234 C.ar    1  UNL1        0.1388
      4 C          63.7930   90.6489   13.3422 C.ar    1  UNL1        0.0552
      5 C          65.0284   91.2796   13.9131 C.ar    1  UNL1        0.1047
      6 N          65.8658   92.1903   13.0650 N.ar    1  UNL1       -0.2120
      7 C          65.4679   92.4705   11.6463 C.ar    1  UNL1        0.2215
      8 N          64.2324   91.8397   11.0753 N.ar    1  UNL1       -0.1985
      9 N          66.3054   93.3812   10.7982 N.pl3   1  UNL1       -0.2730
     10 C          67.4074   92.8155    9.9524 C.3     1  UNL1        0.1257
     11 C          68.2449   93.7263    9.1044 C.3     1  UNL1        0.1637
     12 O          67.9803   95.2028    9.1022 O.3     1  UNL1       -0.3501
     13 C          66.8782   95.7685    9.9480 C.3     1  UNL1        0.1637
     14 C          66.0408   94.8577   10.7960 C.3     1  UNL1        0.1257
     15 C          62.4208   86.4383   11.0395 C.ar    1  UNL1        0.1244
     16 C          62.5560   87.7000   11.8394 C.ar    1  UNL1        0.0785
     17 C          62.1699   88.8510   10.9584 C.ar    1  UNL1        0.2316
     18 O          61.7961   88.3006    9.6140 O.2     1  UNL1       -0.3381
     19 N          61.9511   86.8095    9.6642 N.ar    1  UNL1       -0.0754
     20 C          63.2742   82.2712   12.5082 C.ar    1  UNL1        0.1387
     21 C          62.7645   83.3122   13.4602 C.ar    1  UNL1        0.0370
     22 C          62.4801   84.7013   12.9707 C.ar    1  UNL1        0.0047
     23 C          62.7053   85.0492   11.5291 C.ar    1  UNL1        0.0212
     24 C          63.2149   84.0082   10.5771 C.ar    1  UNL1        0.0047
     25 C          63.4994   82.6192   11.0666 C.ar    1  UNL1        0.0370
     26 C          62.4293   79.9225   13.2292 C.3     1  UNL1        0.2525
     27 O          63.5587   80.8822   12.9978 O.3     1  UNL1       -0.4714
@<TRIPOS>BOND
     1    26    27    1
     2    27    20    1
     3    20    21   ar
     4    21    22   ar
     5    22    23   ar
     6    23    15    1
     7    15    16   ar
     8    16    17   ar
     9    17     1    1
    10     1     3    1
    11     3     4   ar
    12     4     5   ar
    13     5     6   ar
    14     6     7   ar
    15     7     9    1
    16     9    10    1
    17    10    11    1
    18    11    12    1
    19    12    13    1
    20    13    14    1
    21     7     8   ar
    22    17    18   ar
    23    18    19   ar
    24    23    24   ar
    25    24    25   ar
    26    25    20   ar
    27    19    15   ar
    28     8     3   ar
    29    14     9    1
    30     1     2    1
@<TRIPOS>MOLECULE
*****
 27 30 0 0 0
SMALL
GASTEIGER

@<TRIPOS>ATOM
      1 N          64.3674   87.9043   14.8561 N.pl3   1  UNL1       -0.2671
      2 H          64.9838   88.2301   15.5511 H       1  UNL1        0.1565
      3 C          63.9518   88.8122   13.7367 C.ar    1  UNL1        0.1388
      4 C          64.3814   90.2494   13.7379 C.ar    1  UNL1        0.0552
      5 C          63.9658   91.1573   12.6186 C.ar    1  UNL1        0.1047
      6 N          63.1207   90.6281   11.4980 N.ar    1  UNL1       -0.2120
      7 C          62.6912   89.1910   11.4967 C.ar    1  UNL1        0.2215
      8 N          63.1067   88.2829   12.6162 N.ar    1  UNL1       -0.1985
      9 N          61.8460   88.6617   10.3762 N.pl3   1  UNL1       -0.2730
     10 C          60.8821   89.5690    9.6708 C.3     1  UNL1        0.1257
     11 C          60.0370   89.0397    8.5502 C.3     1  UNL1        0.1637
     12 O          60.1558   87.6032    8.1351 O.3     1  UNL1       -0.3501
     13 C          61.1198   86.6959    8.8405 C.3     1  UNL1        0.1637
     14 C          61.9649   87.2252    9.9611 C.3     1  UNL1        0.1257
     15 C          63.2693   84.2224   14.3052 C.ar    1  UNL1        0.1244
     16 C          63.9102   85.4861   13.8128 C.ar    1  UNL1        0.0785
     17 C          63.8438   86.4999   14.9163 C.ar    1  UNL1        0.2316
     18 O          63.1619   85.8628   16.0907 O.2     1  UNL1       -0.3381
     19 N          62.8068   84.4553   15.7129 N.ar    1  UNL1       -0.0754
     20 C          62.8141   80.4034   11.9690 C.ar    1  UNL1        0.1387
     21 C          63.4385   81.6061   11.3259 C.ar    1  UNL1        0.0370
     22 C          63.5902   82.8791   12.1046 C.ar    1  UNL1        0.0047
     23 C          63.1176   82.9494   13.5264 C.ar    1  UNL1        0.0212
     24 C          62.4931   81.7467   14.1695 C.ar    1  UNL1        0.0047
     25 C          62.3414   80.4737   13.3908 C.ar    1  UNL1        0.0370
     26 C          62.7885   79.1459    9.6957 C.3     1  UNL1        0.2525
     27 O          62.6623   79.1304   11.1902 O.3     1  UNL1       -0.4714
@<TRIPOS>BOND
     1    26    27    1
     2    27    20    1
     3    20    21   ar
     4    21    22   ar
     5    22    23   ar
     6    23    15    1
     7    15    16   ar
     8    16    17   ar
     9    17     1    1
    10     1     3    1
    11     3     4   ar
    12     4     5   ar
    13     5     6   ar
    14     6     7   ar
    15     7     9    1
    16     9    10    1
    17    10    11    1
    18    11    12    1
    19    12    13    1
    20    13    14    1
    21     7     8   ar
    22    17    18   ar
    23    18    19   ar
    24    23    24   ar
    25    24    25   ar
    26    25    20   ar
    27    19    15   ar
    28     8     3   ar
    29    14     9    1
    30     1     2    1
@<TRIPOS>MOLECULE
*****
 27 30 0 0 0
SMALL
GASTEIGER

@<TRIPOS>ATOM
      1 N          63.3249   87.2343   16.2659 N.pl3   1  UNL1       -0.2671
      2 H          62.7774   87.0615   17.0657 H       1  UNL1        0.1565
      3 C          64.0139   86.0986   15.5691 C.ar    1  UNL1        0.1388
      4 C          65.4785   86.1875   15.2578 C.ar    1  UNL1        0.0552
      5 C          66.1674   85.0518   14.5609 C.ar    1  UNL1        0.1047
      6 N          65.3917   83.8273   14.1753 N.ar    1  UNL1       -0.2120
      7 C          63.9271   83.7384   14.4865 C.ar    1  UNL1        0.2215
      8 N          63.2381   84.8741   15.1834 N.ar    1  UNL1       -0.1985
      9 N          63.1513   82.5138   14.1009 N.pl3   1  UNL1       -0.2730
     10 C          63.7880   81.4627   13.2408 C.3     1  UNL1        0.1257
     11 C          63.0122   80.2381   12.8552 C.3     1  UNL1        0.1637
     12 O          61.5998   80.0648   13.3296 O.3     1  UNL1       -0.3501
     13 C          60.9631   81.1159   14.1897 C.3     1  UNL1        0.1637
     14 C          61.7389   82.3405   14.5753 C.3     1  UNL1        0.1257
     15 C          64.0447   90.5224   14.3331 C.ar    1  UNL1        0.1244
     16 C          64.1231   89.0292   14.4532 C.ar    1  UNL1        0.0785
     17 C          63.4703   88.6331   15.7443 C.ar    1  UNL1        0.2316
     18 O          62.9885   89.8814   16.4222 O.2     1  UNL1       -0.3381
     19 N          63.3435   91.0490   15.5500 N.ar    1  UNL1       -0.0754
     20 C          65.6340   92.9886   10.9211 C.ar    1  UNL1        0.1387
     21 C          64.4188   92.1316   10.7247 C.ar    1  UNL1        0.0370
     22 C          63.8890   91.3095   11.8620 C.ar    1  UNL1        0.0047
     23 C          64.5745   91.3444   13.1958 C.ar    1  UNL1        0.0212
     24 C          65.7897   92.2015   13.3922 C.ar    1  UNL1        0.0047
     25 C          66.3195   93.0236   12.2549 C.ar    1  UNL1        0.0370
     26 C          67.0155   95.0139   10.0611 C.3     1  UNL1        0.2525
     27 O          66.1638   93.8107    9.7838 O.3     1  UNL1       -0.4714
@<TRIPOS>BOND
     1    26    27    1
     2    27    20    1
     3    20    21   ar
     4    21    22   ar
     5    22    23   ar
     6    23    15    1
     7    15    16   ar
     8    16    17   ar
     9    17     1    1
    10     1     3    1
    11     3     4   ar
    12     4     5   ar
    13     5     6   ar
    14     6     7   ar
    15     7     9    1
    16     9    10    1
    17    10    11    1
    18    11    12    1
    19    12    13    1
    20    13    14    1
    21     7     8   ar
    22    17    18   ar
    23    18    19   ar
    24    23    24   ar
    25    24    25   ar
    26    25    20   ar
    27    19    15   ar
    28     8     3   ar
    29    14     9    1
    30     1     2    1
@<TRIPOS>MOLECULE
*****
 27 30 0 0 0
SMALL
GASTEIGER

@<TRIPOS>ATOM
      1 N          63.8000   88.2823   15.7868 N.pl3   1  UNL1       -0.2671
      2 H          63.9920   88.5645   16.7102 H       1  UNL1        0.1565
      3 C          63.5815   86.8313   15.4761 C.ar    1  UNL1        0.1388
      4 C          63.2795   85.8645   16.5825 C.ar    1  UNL1        0.0552
      5 C          63.0610   84.4134   16.2718 C.ar    1  UNL1        0.1047
      6 N          63.1446   83.9291   14.8546 N.ar    1  UNL1       -0.2120
      7 C          63.4466   84.8957   13.7482 C.ar    1  UNL1        0.2215
      8 N          63.6651   86.3469   14.0589 N.ar    1  UNL1       -0.1985
      9 N          63.5302   84.4114   12.3310 N.pl3   1  UNL1       -0.2730
     10 C          62.8354   85.1677   11.2377 C.3     1  UNL1        0.1257
     11 C          62.9190   84.6833    9.8206 C.3     1  UNL1        0.1637
     12 O          63.6974   83.4427    9.4966 O.3     1  UNL1       -0.3501
     13 C          64.3922   82.6864   10.5899 C.3     1  UNL1        0.1637
     14 C          64.3086   83.1707   12.0070 C.3     1  UNL1        0.1257
     15 C          64.3160   91.0859   13.1526 C.ar    1  UNL1        0.1244
     16 C          64.8216   90.2451   14.2872 C.ar    1  UNL1        0.0785
     17 C          63.7259   89.3035   14.6906 C.ar    1  UNL1        0.2316
     18 O          62.5430   89.5623   13.8052 O.2     1  UNL1       -0.3381
     19 N          62.9077   90.6639   12.8547 N.ar    1  UNL1       -0.0754
     20 C          66.6194   94.3085   11.0172 C.ar    1  UNL1        0.1387
     21 C          65.8492   93.2901   10.2301 C.ar    1  UNL1        0.0370
     22 C          65.0814   92.2159   10.9419 C.ar    1  UNL1        0.0047
     23 C          65.0838   92.1601   12.4408 C.ar    1  UNL1        0.0212
     24 C          65.8540   93.1785   13.2279 C.ar    1  UNL1        0.0047
     25 C          66.6218   94.2526   12.5162 C.ar    1  UNL1        0.0370
     26 C          67.2664   95.5304    8.8177 C.3     1  UNL1        0.2525
     27 O          67.3872   95.3826   10.3055 O.3     1  UNL1       -0.4714
@<TRIPOS>BOND
     1    26    27    1
     2    27    20    1
     3    20    21   ar
     4    21    22   ar
     5    22    23   ar
     6    23    15    1
     7    15    16   ar
     8    16    17   ar
     9    17     1    1
    10     1     3    1
    11     3     4   ar
    12     4     5   ar
    13     5     6   ar
    14     6     7   ar
    15     7     9    1
    16     9    10    1
    17    10    11    1
    18    11    12    1
    19    12    13    1
    20    13    14    1
    21     7     8   ar
    22    17    18   ar
    23    18    19   ar
    24    23    24   ar
    25    24    25   ar
    26    25    20   ar
    27    19    15   ar
    28     8     3   ar
    29    14     9    1
    30     1     2    1
@<TRIPOS>MOLECULE
*****
 27 30 0 0 0
SMALL
GASTEIGER

@<TRIPOS>ATOM
      1 N          63.5090   90.4384   15.2098 N.pl3   1  UNL1       -0.2671
      2 H          62.7864   91.0388   15.5040 H       1  UNL1        0.1565
      3 C          63.4370   88.9718   15.5161 C.ar    1  UNL1        0.1388
      4 C          63.1952   88.5103   16.9227 C.ar    1  UNL1        0.0552
      5 C          63.1232   87.0437   17.2290 C.ar    1  UNL1        0.1047
      6 N          63.2930   86.0386   16.1286 N.ar    1  UNL1       -0.2120
      7 C          63.5348   86.4999   14.7221 C.ar    1  UNL1        0.2215
      8 N          63.6068   87.9666   14.4157 N.ar    1  UNL1       -0.1985
      9 N          63.7046   85.4948   13.6217 N.pl3   1  UNL1       -0.2730
     10 C          62.9292   85.6411   12.3461 C.3     1  UNL1        0.1257
     11 C          63.0990   84.6359   11.2457 C.3     1  UNL1        0.1637
     12 O          64.0442   83.4845   11.4210 O.3     1  UNL1       -0.3501
     13 C          64.8196   83.3381   12.6966 C.3     1  UNL1        0.1637
     14 C          64.6498   84.3433   13.7970 C.3     1  UNL1        0.1257
     15 C          66.0209   92.1435   12.7914 C.ar    1  UNL1        0.1244
     16 C          64.6171   91.8065   13.1984 C.ar    1  UNL1        0.0785
     17 C          64.6821   90.9903   14.4553 C.ar    1  UNL1        0.2316
     18 O          66.1261   90.8229   14.8250 O.2     1  UNL1       -0.3381
     19 N          66.9535   91.5356   13.7967 N.ar    1  UNL1       -0.0754
     20 C          67.2233   94.5549    9.1874 C.ar    1  UNL1        0.1387
     21 C          67.7999   93.1868    9.4008 C.ar    1  UNL1        0.0370
     22 C          67.3991   92.3830   10.6021 C.ar    1  UNL1        0.0047
     23 C          66.4217   92.9473   11.5901 C.ar    1  UNL1        0.0212
     24 C          65.8451   94.3155   11.3767 C.ar    1  UNL1        0.0047
     25 C          66.2459   95.1193   10.1753 C.ar    1  UNL1        0.0370
     26 C          67.5268   96.8552    8.0183 C.3     1  UNL1        0.2525
     27 O          67.6241   95.3587    7.9860 O.3     1  UNL1       -0.4714
@<TRIPOS>BOND
     1    26    27    1
     2    27    20    1
     3    20    21   ar
     4    21    22   ar
     5    22    23   ar
     6    23    15    1
     7    15    16   ar
     8    16    17   ar
     9    17     1    1
    10     1     3    1
    11     3     4   ar
    12     4     5   ar
    13     5     6   ar
    14     6     7   ar
    15     7     9    1
    16     9    10    1
    17    10    11    1
    18    11    12    1
    19    12    13    1
    20    13    14    1
    21     7     8   ar
    22    17    18   ar
    23    18    19   ar
    24    23    24   ar
    25    24    25   ar
    26    25    20   ar
    27    19    15   ar
    28     8     3   ar
    29    14     9    1
    30     1     2    1
