@<TRIPOS>MOLECULE
*****
 36 41 0 0 0
SMALL
GASTEIGER

@<TRIPOS>ATOM
      1 C          64.6262   85.0076   15.7861 C.3     1  UNL1        0.0722
      2 C          64.0176   85.7019   14.6040 C.ar    1  UNL1        0.1246
      3 N          64.1814   87.1507   14.2519 N.ar    1  UNL1       -0.2305
      4 C          63.4033   87.4136   12.9966 C.ar    1  UNL1        0.1015
      5 C          63.1986   88.6580   12.1847 C.ar    1  UNL1        0.0548
      6 C          62.3491   88.6161   10.9490 C.ar    1  UNL1        0.0046
      7 C          61.7044   87.3297   10.5255 C.ar    1  UNL1        0.0018
      8 C          61.9092   86.0852   11.3375 C.ar    1  UNL1        0.0191
      9 C          62.7586   86.1271   12.5730 C.ar    1  UNL1        0.0827
     10 N          63.1382   85.0693   13.5664 N.ar    1  UNL1       -0.2935
     11 C          62.7131   83.6312   13.5288 C.ar    1  UNL1        0.0703
     12 C          61.9141   83.0556   14.6603 C.ar    1  UNL1        0.0383
     13 C          61.4889   81.6176   14.6227 C.ar    1  UNL1        0.1004
     14 N          61.8629   80.7553   13.4537 N.ar    1  UNL1       -0.2414
     15 C          62.6620   81.3309   12.3223 C.ar    1  UNL1        0.1122
     16 C          63.0359   80.4685   11.1533 C.ar    1  UNL1        0.1578
     17 F          62.6108   79.0306   11.1158 F       1  UNL1       -0.2026
     18 C          63.8350   81.0442   10.0219 C.ar    1  UNL1        0.0335
     19 C          64.2601   82.4822   10.0595 C.ar    1  UNL1        0.0321
     20 C          63.8861   83.3446   11.2285 C.ar    1  UNL1        0.1431
     21 F          64.4049   84.5643   10.9721 F       1  UNL1       -0.2041
     22 C          63.0871   82.7689   12.3599 C.ar    1  UNL1        0.0635
     23 C          63.8433   89.9444   12.6083 C.ar    1  UNL1        0.1647
     24 N          63.8898   91.2126   11.8085 N.ar    1  UNL1       -0.1288
     25 N          64.6299   92.2405   12.6120 N.ar    1  UNL1       -0.1258
     26 C          65.0410   91.6076   13.9083 C.ar    1  UNL1        0.1992
     27 N          64.5548   90.1886   13.9061 N.ar    1  UNL1       -0.3187
     28 H          64.6806   89.5327   14.6294 H       1  UNL1        0.1690
     29 C          60.8550   87.2878    9.2899 C.ar    1  UNL1        0.0038
     30 C          60.4016   85.9696    8.7358 C.ar    1  UNL1        0.0207
     31 C          59.5521   85.9277    7.5002 C.ar    1  UNL1        0.0996
     32 N          59.1561   87.2039    6.8187 N.ar    1  UNL1       -0.2335
     33 C          59.6094   88.5219    7.3727 C.ar    1  UNL1        0.1492
     34 C          60.4589   88.5639    8.6084 C.ar    1  UNL1        0.0297
     35 C          59.2134   89.7981    6.6912 C.1     1  UNL1        0.1198
     36 N          58.8173   91.0744    6.0097 N.1     1  UNL1       -0.1893
@<TRIPOS>BOND
     1     1     2    1
     2     2     3   ar
     3     3     4   ar
     4     4     5   ar
     5     5    23    1
     6    23    24   ar
     7    24    25   ar
     8    25    26   ar
     9    26    27   ar
    10     5     6   ar
    11     6     7   ar
    12     7    29    1
    13    29    30   ar
    14    30    31   ar
    15    31    32   ar
    16    32    33   ar
    17    33    35    1
    18    35    36    3
    19    33    34   ar
    20     7     8   ar
    21     8     9   ar
    22     9    10   ar
    23    10    11    1
    24    11    12   ar
    25    12    13   ar
    26    13    14   ar
    27    14    15   ar
    28    15    16   ar
    29    16    17    1
    30    16    18   ar
    31    18    19   ar
    32    19    20   ar
    33    20    21    1
    34    20    22   ar
    35    10     2   ar
    36    22    11   ar
    37     9     4   ar
    38    22    15   ar
    39    27    23   ar
    40    34    29   ar
    41    27    28    1
@<TRIPOS>MOLECULE
*****
 36 41 0 0 0
SMALL
GASTEIGER

@<TRIPOS>ATOM
      1 C          62.1947   91.9614   10.7506 C.3     1  UNL1        0.0722
      2 C          62.2637   90.4836   10.9981 C.ar    1  UNL1        0.1246
      3 N          61.6745   89.4151   10.1257 N.ar    1  UNL1       -0.2305
      4 C          61.9807   88.0858   10.7498 C.ar    1  UNL1        0.1015
      5 C          61.6512   86.6826   10.3351 C.ar    1  UNL1        0.0548
      6 C          62.1002   85.5262   11.1785 C.ar    1  UNL1        0.0046
      7 C          62.8786   85.7732   12.4367 C.ar    1  UNL1        0.0018
      8 C          63.2081   87.1766   12.8514 C.ar    1  UNL1        0.0191
      9 C          62.7591   88.3329   12.0080 C.ar    1  UNL1        0.0827
     10 N          62.9340   89.8148   12.1614 N.ar    1  UNL1       -0.2935
     11 C          63.6531   90.5064   13.2816 C.ar    1  UNL1        0.0703
     12 C          63.2651   90.2320   14.7043 C.ar    1  UNL1        0.0383
     13 C          63.9841   90.9236   15.8245 C.ar    1  UNL1        0.1004
     14 N          65.0911   91.8895   15.5219 N.ar    1  UNL1       -0.2414
     15 C          65.4790   92.1639   14.0991 C.ar    1  UNL1        0.1122
     16 C          66.5860   93.1299   13.7966 C.ar    1  UNL1        0.1578
     17 F          67.3050   93.8214   14.9167 F       1  UNL1       -0.2026
     18 C          66.9740   93.4042   12.3738 C.ar    1  UNL1        0.0335
     19 C          66.2550   92.7126   11.2536 C.ar    1  UNL1        0.0321
     20 C          65.1480   91.7467   11.5562 C.ar    1  UNL1        0.1431
     21 F          64.7081   91.2986   10.3612 F       1  UNL1       -0.2041
     22 C          64.7600   91.4723   12.9790 C.ar    1  UNL1        0.0635
     23 C          60.8728   86.4355    9.0769 C.ar    1  UNL1        0.1647
     24 N          61.2570   85.4960    7.9726 N.ar    1  UNL1       -0.1288
     25 N          60.1951   85.5644    6.9153 N.ar    1  UNL1       -0.1258
     26 C          59.1546   86.5462    7.3663 C.ar    1  UNL1        0.1992
     27 N          59.5734   87.0845    8.7022 N.ar    1  UNL1       -0.3187
     28 H          59.0818   87.7475    9.2389 H       1  UNL1        0.1690
     29 C          63.3276   84.6169   13.2801 C.ar    1  UNL1        0.0038
     30 C          64.3090   84.8368   14.3930 C.ar    1  UNL1        0.0207
     31 C          64.7579   83.6805   15.2364 C.ar    1  UNL1        0.0996
     32 N          64.2255   82.3043   14.9670 N.ar    1  UNL1       -0.2335
     33 C          63.2442   82.0844   13.8541 C.ar    1  UNL1        0.1492
     34 C          62.7952   83.2407   13.0106 C.ar    1  UNL1        0.0297
     35 C          62.7118   80.7082   13.5846 C.1     1  UNL1        0.1198
     36 N          62.1793   79.3320   13.3151 N.1     1  UNL1       -0.1893
@<TRIPOS>BOND
     1     1     2    1
     2     2     3   ar
     3     3     4   ar
     4     4     5   ar
     5     5    23    1
     6    23    24   ar
     7    24    25   ar
     8    25    26   ar
     9    26    27   ar
    10     5     6   ar
    11     6     7   ar
    12     7    29    1
    13    29    30   ar
    14    30    31   ar
    15    31    32   ar
    16    32    33   ar
    17    33    35    1
    18    35    36    3
    19    33    34   ar
    20     7     8   ar
    21     8     9   ar
    22     9    10   ar
    23    10    11    1
    24    11    12   ar
    25    12    13   ar
    26    13    14   ar
    27    14    15   ar
    28    15    16   ar
    29    16    17    1
    30    16    18   ar
    31    18    19   ar
    32    19    20   ar
    33    20    21    1
    34    20    22   ar
    35    10     2   ar
    36    22    11   ar
    37     9     4   ar
    38    22    15   ar
    39    27    23   ar
    40    34    29   ar
    41    27    28    1
@<TRIPOS>MOLECULE
*****
 36 41 0 0 0
SMALL
GASTEIGER

@<TRIPOS>ATOM
      1 C          55.5791   92.1465   -1.5589 C.3     1  UNL1        0.0722
      2 C          57.0285   92.5022   -1.7102 C.ar    1  UNL1        0.1246
      3 N          58.0582   92.4881   -0.6196 N.ar    1  UNL1       -0.2305
      4 C          59.3687   92.9117   -1.2139 C.ar    1  UNL1        0.1015
      5 C          60.7337   93.0818   -0.6159 C.ar    1  UNL1        0.0548
      6 C          61.8790   93.5279   -1.4759 C.ar    1  UNL1        0.0046
      7 C          61.6592   93.8037   -2.9338 C.ar    1  UNL1        0.0018
      8 C          60.2941   93.6336   -3.5318 C.ar    1  UNL1        0.0191
      9 C          59.1489   93.1876   -2.6718 C.ar    1  UNL1        0.0827
     10 N          57.7025   92.9345   -2.9786 N.ar    1  UNL1       -0.2935
     11 C          57.0456   93.0870   -4.3185 C.ar    1  UNL1        0.0703
     12 C          57.2500   92.0440   -5.3770 C.ar    1  UNL1        0.0383
     13 C          56.5932   92.1965   -6.7168 C.ar    1  UNL1        0.1004
     14 N          55.7318   93.3918   -6.9981 N.ar    1  UNL1       -0.2414
     15 C          55.5274   94.4347   -5.9396 C.ar    1  UNL1        0.1122
     16 C          54.6660   95.6302   -6.2210 C.ar    1  UNL1        0.1578
     17 F          54.0091   95.7826   -7.5608 F       1  UNL1       -0.2026
     18 C          54.4615   96.6731   -5.1625 C.ar    1  UNL1        0.0335
     19 C          55.1184   96.5206   -3.8226 C.ar    1  UNL1        0.0321
     20 C          55.9798   95.3253   -3.5412 C.ar    1  UNL1        0.1431
     21 F          56.4194   95.4735   -2.2735 F       1  UNL1       -0.2041
     22 C          56.1842   94.2823   -4.5998 C.ar    1  UNL1        0.0635
     23 C          60.9536   92.8060    0.8420 C.ar    1  UNL1        0.1647
     24 N          62.2360   92.3446    1.4684 N.ar    1  UNL1       -0.1288
     25 N          62.0046   92.1965    2.9431 N.ar    1  UNL1       -0.1258
     26 C          60.5791   92.5663    3.2280 C.ar    1  UNL1        0.1992
     27 N          59.9295   92.9430    1.9295 N.ar    1  UNL1       -0.3187
     28 H          58.9951   93.2298    1.8117 H       1  UNL1        0.1690
     29 C          62.8044   94.2497   -3.7937 C.ar    1  UNL1        0.0038
     30 C          63.2335   95.6871   -3.7851 C.ar    1  UNL1        0.0207
     31 C          64.3787   96.1331   -4.6450 C.ar    1  UNL1        0.0996
     32 N          65.0949   95.1418   -5.5136 N.ar    1  UNL1       -0.2335
     33 C          64.6659   93.7045   -5.5222 C.ar    1  UNL1        0.1492
     34 C          63.5206   93.2584   -4.6622 C.ar    1  UNL1        0.0297
     35 C          65.3821   92.7132   -6.3907 C.1     1  UNL1        0.1198
     36 N          66.0984   91.7219   -7.2593 N.1     1  UNL1       -0.1893
@<TRIPOS>BOND
     1     1     2    1
     2     2     3   ar
     3     3     4   ar
     4     4     5   ar
     5     5    23    1
     6    23    24   ar
     7    24    25   ar
     8    25    26   ar
     9    26    27   ar
    10     5     6   ar
    11     6     7   ar
    12     7    29    1
    13    29    30   ar
    14    30    31   ar
    15    31    32   ar
    16    32    33   ar
    17    33    35    1
    18    35    36    3
    19    33    34   ar
    20     7     8   ar
    21     8     9   ar
    22     9    10   ar
    23    10    11    1
    24    11    12   ar
    25    12    13   ar
    26    13    14   ar
    27    14    15   ar
    28    15    16   ar
    29    16    17    1
    30    16    18   ar
    31    18    19   ar
    32    19    20   ar
    33    20    21    1
    34    20    22   ar
    35    10     2   ar
    36    22    11   ar
    37     9     4   ar
    38    22    15   ar
    39    27    23   ar
    40    34    29   ar
    41    27    28    1
@<TRIPOS>MOLECULE
*****
 36 41 0 0 0
SMALL
GASTEIGER

@<TRIPOS>ATOM
      1 C          65.3558   84.5024   14.4454 C.3     1  UNL1        0.0722
      2 C          64.4803   85.3653   13.5859 C.ar    1  UNL1        0.1246
      3 N          64.2791   86.8441   13.7367 N.ar    1  UNL1       -0.2305
      4 C          63.3266   87.2937   12.6687 C.ar    1  UNL1        0.1015
      5 C          62.7621   88.6414   12.3298 C.ar    1  UNL1        0.0548
      6 C          61.8101   88.7883   11.1800 C.ar    1  UNL1        0.0046
      7 C          61.4226   87.5873   10.3690 C.ar    1  UNL1        0.0018
      8 C          61.9872   86.2396   10.7079 C.ar    1  UNL1        0.0191
      9 C          62.9392   86.0928   11.8578 C.ar    1  UNL1        0.0827
     10 N          63.6521   84.9009   12.4246 N.ar    1  UNL1       -0.2935
     11 C          63.5542   83.4921   11.9189 C.ar    1  UNL1        0.0703
     12 C          64.1762   83.1219   10.6051 C.ar    1  UNL1        0.0383
     13 C          64.0783   81.7132   10.0994 C.ar    1  UNL1        0.1004
     14 N          63.3583   80.6746   10.9074 N.ar    1  UNL1       -0.2414
     15 C          62.7363   81.0448   12.2212 C.ar    1  UNL1        0.1122
     16 C          62.0163   80.0062   13.0293 C.ar    1  UNL1        0.1578
     17 F          61.9183   78.5974   12.5236 F       1  UNL1       -0.2026
     18 C          61.3942   80.3764   14.3431 C.ar    1  UNL1        0.0335
     19 C          61.4922   81.7852   14.8488 C.ar    1  UNL1        0.0321
     20 C          62.2122   82.8238   14.0407 C.ar    1  UNL1        0.1431
     21 F          62.1290   83.9700   14.7491 F       1  UNL1       -0.2041
     22 C          62.8342   82.4536   12.7270 C.ar    1  UNL1        0.0635
     23 C          63.1496   89.8423   13.1408 C.ar    1  UNL1        0.1647
     24 N          62.8824   90.0423   14.6031 N.ar    1  UNL1       -0.1288
     25 N          63.4400   91.3777   14.9978 N.ar    1  UNL1       -0.1258
     26 C          64.0518   92.0031   13.7794 C.ar    1  UNL1        0.1992
     27 N          63.8723   91.0542   12.6317 N.ar    1  UNL1       -0.3187
     28 H          64.1756   91.2010   11.7066 H       1  UNL1        0.1690
     29 C          60.4706   87.7342    9.2192 C.ar    1  UNL1        0.0038
     30 C          59.4309   86.6827    8.9673 C.ar    1  UNL1        0.0207
     31 C          58.4789   86.8295    7.8175 C.ar    1  UNL1        0.0996
     32 N          58.5666   88.0278    6.9196 N.ar    1  UNL1       -0.2335
     33 C          59.6062   89.0793    7.1714 C.ar    1  UNL1        0.1492
     34 C          60.5583   88.9325    8.3213 C.ar    1  UNL1        0.0297
     35 C          59.6939   90.2776    6.2735 C.1     1  UNL1        0.1198
     36 N          59.7816   91.4760    5.3754 N.1     1  UNL1       -0.1893
@<TRIPOS>BOND
     1     1     2    1
     2     2     3   ar
     3     3     4   ar
     4     4     5   ar
     5     5    23    1
     6    23    24   ar
     7    24    25   ar
     8    25    26   ar
     9    26    27   ar
    10     5     6   ar
    11     6     7   ar
    12     7    29    1
    13    29    30   ar
    14    30    31   ar
    15    31    32   ar
    16    32    33   ar
    17    33    35    1
    18    35    36    3
    19    33    34   ar
    20     7     8   ar
    21     8     9   ar
    22     9    10   ar
    23    10    11    1
    24    11    12   ar
    25    12    13   ar
    26    13    14   ar
    27    14    15   ar
    28    15    16   ar
    29    16    17    1
    30    16    18   ar
    31    18    19   ar
    32    19    20   ar
    33    20    21    1
    34    20    22   ar
    35    10     2   ar
    36    22    11   ar
    37     9     4   ar
    38    22    15   ar
    39    27    23   ar
    40    34    29   ar
    41    27    28    1
@<TRIPOS>MOLECULE
*****
 36 41 0 0 0
SMALL
GASTEIGER

@<TRIPOS>ATOM
      1 C          63.1519   92.3905    9.8574 C.3     1  UNL1        0.0722
      2 C          62.9985   90.9744   10.3275 C.ar    1  UNL1        0.1246
      3 N          62.1311   89.9254    9.6973 N.ar    1  UNL1       -0.2305
      4 C          62.2820   88.6612   10.4907 C.ar    1  UNL1        0.1015
      5 C          61.6688   87.3010   10.3375 C.ar    1  UNL1        0.0548
      6 C          62.0162   86.2084   11.3049 C.ar    1  UNL1        0.0046
      7 C          62.9769   86.4762   12.4253 C.ar    1  UNL1        0.0018
      8 C          63.5901   87.8366   12.5784 C.ar    1  UNL1        0.0191
      9 C          63.2426   88.9291   11.6111 C.ar    1  UNL1        0.0827
     10 N          63.6855   90.3587   11.5103 N.ar    1  UNL1       -0.2935
     11 C          64.6466   91.0510   12.4307 C.ar    1  UNL1        0.0703
     12 C          65.8744   91.7098   11.8753 C.ar    1  UNL1        0.0383
     13 C          66.8355   92.4021   12.7956 C.ar    1  UNL1        0.1004
     14 N          66.5687   92.4356   14.2713 N.ar    1  UNL1       -0.2414
     15 C          65.3409   91.7768   14.8267 C.ar    1  UNL1        0.1122
     16 C          65.0741   91.8104   16.3024 C.ar    1  UNL1        0.1578
     17 F          66.0352   92.5026   17.2227 F       1  UNL1       -0.2026
     18 C          63.8463   91.1516   16.8578 C.ar    1  UNL1        0.0335
     19 C          62.8852   90.4592   15.9374 C.ar    1  UNL1        0.0321
     20 C          63.1520   90.4257   14.4617 C.ar    1  UNL1        0.1431
     21 F          62.1248   89.7426   13.9133 F       1  UNL1       -0.2041
     22 C          64.3798   91.0845   13.9063 C.ar    1  UNL1        0.0635
     23 C          60.7082   87.0331    9.2171 C.ar    1  UNL1        0.1647
     24 N          60.6768   85.8044    8.3573 N.ar    1  UNL1       -0.1288
     25 N          59.5594   85.9589    7.3686 N.ar    1  UNL1       -0.1258
     26 C          58.9002   87.2831    7.6173 C.ar    1  UNL1        0.1992
     27 N          59.6101   87.9470    8.7597 N.ar    1  UNL1       -0.3187
     28 H          59.3934   88.8279    9.1422 H       1  UNL1        0.1690
     29 C          63.3243   85.3837   13.3926 C.ar    1  UNL1        0.0038
     30 C          64.1166   85.6987   14.6268 C.ar    1  UNL1        0.0207
     31 C          64.4640   84.6062   15.5941 C.ar    1  UNL1        0.0996
     32 N          64.0191   83.1987   15.3273 N.ar    1  UNL1       -0.2335
     33 C          63.2269   82.8838   14.0932 C.ar    1  UNL1        0.1492
     34 C          62.8794   83.9763   13.1258 C.ar    1  UNL1        0.0297
     35 C          62.7821   81.4764   13.8264 C.1     1  UNL1        0.1198
     36 N          62.3372   80.0688   13.5595 N.1     1  UNL1       -0.1893
@<TRIPOS>BOND
     1     1     2    1
     2     2     3   ar
     3     3     4   ar
     4     4     5   ar
     5     5    23    1
     6    23    24   ar
     7    24    25   ar
     8    25    26   ar
     9    26    27   ar
    10     5     6   ar
    11     6     7   ar
    12     7    29    1
    13    29    30   ar
    14    30    31   ar
    15    31    32   ar
    16    32    33   ar
    17    33    35    1
    18    35    36    3
    19    33    34   ar
    20     7     8   ar
    21     8     9   ar
    22     9    10   ar
    23    10    11    1
    24    11    12   ar
    25    12    13   ar
    26    13    14   ar
    27    14    15   ar
    28    15    16   ar
    29    16    17    1
    30    16    18   ar
    31    18    19   ar
    32    19    20   ar
    33    20    21    1
    34    20    22   ar
    35    10     2   ar
    36    22    11   ar
    37     9     4   ar
    38    22    15   ar
    39    27    23   ar
    40    34    29   ar
    41    27    28    1
