@<TRIPOS>MOLECULE
*****
 19 21 0 0 0
SMALL
GASTEIGER

@<TRIPOS>ATOM
      1 O          62.1036   90.8884    9.9535 O.3     1  UNL1       -0.5055
      2 C          62.6828   90.1318   11.1121 C.ar    1  UNL1        0.1337
      3 C          63.3856   90.8691   12.2131 C.ar    1  UNL1        0.0366
      4 C          63.9648   90.1125   13.3717 C.ar    1  UNL1        0.0031
      5 C          63.8412   88.6188   13.4291 C.ar    1  UNL1        0.0010
      6 C          64.4204   87.8622   14.5876 C.ar    1  UNL1        0.0001
      7 C          64.2967   86.3685   14.6451 C.ar    1  UNL1        0.0009
      8 C          63.5938   85.6312   13.5439 C.ar    1  UNL1        0.0136
      9 C          63.0146   86.3877   12.3854 C.ar    1  UNL1        0.0578
     10 CL         62.3118   85.6505   11.2843 Cl      1  UNL1       -0.0822
     11 C          63.1383   87.8816   12.3280 C.ar    1  UNL1        0.0136
     12 C          62.5591   88.6381   11.1695 C.ar    1  UNL1        0.0375
     13 H          62.1808   91.8215    9.9177 H       1  UNL1        0.2922
     14 C          63.4702   84.1374   13.6014 C.ar    1  UNL1        0.0392
     15 C          64.3311   83.2792   12.7226 C.ar    1  UNL1        0.1022
     16 N          64.2075   81.7854   12.7800 N.ar    1  UNL1       -0.2224
     17 C          63.2229   81.1498   13.7162 C.ar    1  UNL1        0.1989
     18 N          62.3620   82.0079   14.5951 N.ar    1  UNL1       -0.2224
     19 C          62.4856   83.5018   14.5376 C.ar    1  UNL1        0.1022
@<TRIPOS>BOND
     1     1     2    1
     2     2     3   ar
     3     3     4   ar
     4     4     5   ar
     5     5     6   ar
     6     6     7   ar
     7     7     8   ar
     8     8    14    1
     9    14    15   ar
    10    15    16   ar
    11    16    17   ar
    12    17    18   ar
    13    18    19   ar
    14     8     9   ar
    15     9    10    1
    16     9    11   ar
    17    11    12   ar
    18    12     2   ar
    19    11     5   ar
    20    19    14   ar
    21     1    13    1
@<TRIPOS>MOLECULE
*****
 19 21 0 0 0
SMALL
GASTEIGER

@<TRIPOS>ATOM
      1 O          60.6209   87.7957   11.5680 O.3     1  UNL1       -0.5055
      2 C          61.5806   88.9236   11.3296 C.ar    1  UNL1        0.1337
      3 C          61.5251   89.6969   10.0455 C.ar    1  UNL1        0.0366
      4 C          62.4848   90.8247    9.8071 C.ar    1  UNL1        0.0031
      5 C          63.5001   91.1794   10.8528 C.ar    1  UNL1        0.0010
      6 C          64.4598   92.3073   10.6144 C.ar    1  UNL1        0.0001
      7 C          65.4750   92.6619   11.6601 C.ar    1  UNL1        0.0009
      8 C          65.5305   91.8886   12.9443 C.ar    1  UNL1        0.0136
      9 C          64.5708   90.7607   13.1827 C.ar    1  UNL1        0.0578
     10 CL         64.6263   89.9874   14.4667 Cl      1  UNL1       -0.0822
     11 C          63.5556   90.4061   12.1369 C.ar    1  UNL1        0.0136
     12 C          62.5959   89.2782   12.3753 C.ar    1  UNL1        0.0375
     13 H          59.9868   87.5742   10.9147 H       1  UNL1        0.2922
     14 C          66.5458   92.2432   13.9900 C.ar    1  UNL1        0.0392
     15 C          66.0991   92.7821   15.3167 C.ar    1  UNL1        0.1022
     16 N          67.1143   93.1367   16.3624 N.ar    1  UNL1       -0.2224
     17 C          68.5762   92.9525   16.0814 C.ar    1  UNL1        0.1989
     18 N          69.0229   92.4136   14.7548 N.ar    1  UNL1       -0.2224
     19 C          68.0076   92.0590   13.7090 C.ar    1  UNL1        0.1022
@<TRIPOS>BOND
     1     1     2    1
     2     2     3   ar
     3     3     4   ar
     4     4     5   ar
     5     5     6   ar
     6     6     7   ar
     7     7     8   ar
     8     8    14    1
     9    14    15   ar
    10    15    16   ar
    11    16    17   ar
    12    17    18   ar
    13    18    19   ar
    14     8     9   ar
    15     9    10    1
    16     9    11   ar
    17    11    12   ar
    18    12     2   ar
    19    11     5   ar
    20    19    14   ar
    21     1    13    1
@<TRIPOS>MOLECULE
*****
 19 21 0 0 0
SMALL
GASTEIGER

@<TRIPOS>ATOM
      1 O          64.2818   91.7396   13.7885 O.3     1  UNL1       -0.5055
      2 C          63.7130   90.5916   13.0085 C.ar    1  UNL1        0.1337
      3 C          62.9417   90.8501   11.7482 C.ar    1  UNL1        0.0366
      4 C          62.3729   89.7021   10.9682 C.ar    1  UNL1        0.0031
      5 C          62.5753   88.2956   11.4483 C.ar    1  UNL1        0.0010
      6 C          62.0065   87.1476   10.6682 C.ar    1  UNL1        0.0001
      7 C          62.2089   85.7410   11.1484 C.ar    1  UNL1        0.0009
      8 C          62.9803   85.4824   12.4087 C.ar    1  UNL1        0.0136
      9 C          63.5491   86.6304   13.1887 C.ar    1  UNL1        0.0578
     10 CL         64.3204   86.3719   14.4490 Cl      1  UNL1       -0.0822
     11 C          63.3466   88.0370   12.7085 C.ar    1  UNL1        0.0136
     12 C          63.9155   89.1850   13.4886 C.ar    1  UNL1        0.0375
     13 H          64.1554   92.6182   13.4886 H       1  UNL1        0.2922
     14 C          63.1827   84.0759   12.8888 C.ar    1  UNL1        0.0392
     15 C          62.4265   83.5750   14.0836 C.ar    1  UNL1        0.1022
     16 N          62.6290   82.1685   14.5637 N.ar    1  UNL1       -0.2224
     17 C          63.5876   81.2627   13.8491 C.ar    1  UNL1        0.1989
     18 N          64.3438   81.7635   12.6544 N.ar    1  UNL1       -0.2224
     19 C          64.1414   83.1701   12.1742 C.ar    1  UNL1        0.1022
@<TRIPOS>BOND
     1     1     2    1
     2     2     3   ar
     3     3     4   ar
     4     4     5   ar
     5     5     6   ar
     6     6     7   ar
     7     7     8   ar
     8     8    14    1
     9    14    15   ar
    10    15    16   ar
    11    16    17   ar
    12    17    18   ar
    13    18    19   ar
    14     8     9   ar
    15     9    10    1
    16     9    11   ar
    17    11    12   ar
    18    12     2   ar
    19    11     5   ar
    20    19    14   ar
    21     1    13    1
@<TRIPOS>MOLECULE
*****
 19 21 0 0 0
SMALL
GASTEIGER

@<TRIPOS>ATOM
      1 O          66.7104   92.7407   16.6066 O.3     1  UNL1       -0.5055
      2 C          66.2705   92.6922   15.1734 C.ar    1  UNL1        0.1337
      3 C          66.8760   93.6292   14.1708 C.ar    1  UNL1        0.0366
      4 C          66.4361   93.5807   12.7376 C.ar    1  UNL1        0.0031
      5 C          65.3906   92.5952   12.3069 C.ar    1  UNL1        0.0010
      6 C          64.9507   92.5467   10.8737 C.ar    1  UNL1        0.0001
      7 C          63.9052   91.5611   10.4430 C.ar    1  UNL1        0.0009
      8 C          63.2996   90.6239   11.4455 C.ar    1  UNL1        0.0136
      9 C          63.7395   90.6724   12.8788 C.ar    1  UNL1        0.0578
     10 CL         63.1339   89.7354   13.8813 Cl      1  UNL1       -0.0822
     11 C          64.7851   91.6581   13.3094 C.ar    1  UNL1        0.0136
     12 C          65.2250   91.7066   14.7427 C.ar    1  UNL1        0.0375
     13 H          67.3635   93.3563   16.8756 H       1  UNL1        0.2922
     14 C          62.2541   89.6384   11.0149 C.ar    1  UNL1        0.0392
     15 C          62.5088   88.1665   11.1527 C.ar    1  UNL1        0.1022
     16 N          61.4633   87.1810   10.7220 N.ar    1  UNL1       -0.2224
     17 C          60.1631   87.6671   10.1534 C.ar    1  UNL1        0.1989
     18 N          59.9085   89.1389   10.0156 N.ar    1  UNL1       -0.2224
     19 C          60.9540   90.1245   10.4463 C.ar    1  UNL1        0.1022
@<TRIPOS>BOND
     1     1     2    1
     2     2     3   ar
     3     3     4   ar
     4     4     5   ar
     5     5     6   ar
     6     6     7   ar
     7     7     8   ar
     8     8    14    1
     9    14    15   ar
    10    15    16   ar
    11    16    17   ar
    12    17    18   ar
    13    18    19   ar
    14     8     9   ar
    15     9    10    1
    16     9    11   ar
    17    11    12   ar
    18    12     2   ar
    19    11     5   ar
    20    19    14   ar
    21     1    13    1
@<TRIPOS>MOLECULE
*****
 19 21 0 0 0
SMALL
GASTEIGER

@<TRIPOS>ATOM
      1 O          63.6488   82.9663   15.2071 O.3     1  UNL1       -0.5055
      2 C          63.6627   83.1930   13.7244 C.ar    1  UNL1        0.1337
      3 C          64.5189   82.3336   12.8423 C.ar    1  UNL1        0.0366
      4 C          64.5328   82.5603   11.3596 C.ar    1  UNL1        0.0031
      5 C          63.6905   83.6466   10.7590 C.ar    1  UNL1        0.0010
      6 C          63.7044   83.8733    9.2764 C.ar    1  UNL1        0.0001
      7 C          62.8622   84.9595    8.6758 C.ar    1  UNL1        0.0009
      8 C          62.0060   85.8191    9.5580 C.ar    1  UNL1        0.0136
      9 C          61.9920   85.5923   11.0407 C.ar    1  UNL1        0.0578
     10 CL         61.1359   86.4517   11.9229 Cl      1  UNL1       -0.0822
     11 C          62.8344   84.5060   11.6412 C.ar    1  UNL1        0.0136
     12 C          62.8204   84.2792   13.1239 C.ar    1  UNL1        0.0375
     13 H          64.1749   82.2877   15.5823 H       1  UNL1        0.2922
     14 C          61.1637   86.9053    8.9575 C.ar    1  UNL1        0.0392
     15 C          61.3731   88.3320    9.3709 C.ar    1  UNL1        0.1022
     16 N          60.5308   89.4182    8.7704 N.ar    1  UNL1       -0.2224
     17 C          59.4792   89.0778    7.7564 C.ar    1  UNL1        0.1989
     18 N          59.2698   87.6512    7.3429 N.ar    1  UNL1       -0.2224
     19 C          60.1120   86.5649    7.9435 C.ar    1  UNL1        0.1022
@<TRIPOS>BOND
     1     1     2    1
     2     2     3   ar
     3     3     4   ar
     4     4     5   ar
     5     5     6   ar
     6     6     7   ar
     7     7     8   ar
     8     8    14    1
     9    14    15   ar
    10    15    16   ar
    11    16    17   ar
    12    17    18   ar
    13    18    19   ar
    14     8     9   ar
    15     9    10    1
    16     9    11   ar
    17    11    12   ar
    18    12     2   ar
    19    11     5   ar
    20    19    14   ar
    21     1    13    1
@<TRIPOS>MOLECULE
*****
 19 21 0 0 0
SMALL
GASTEIGER

@<TRIPOS>ATOM
      1 O          62.4544   83.5841   11.8826 O.3     1  UNL1       -0.5055
      2 C          62.4779   85.0675   11.6614 C.ar    1  UNL1        0.1337
      3 C          61.8497   85.6524   10.4313 C.ar    1  UNL1        0.0366
      4 C          61.8732   87.1358   10.2101 C.ar    1  UNL1        0.0031
      5 C          62.5247   88.0343   11.2190 C.ar    1  UNL1        0.0010
      6 C          62.5482   89.5177   10.9978 C.ar    1  UNL1        0.0001
      7 C          63.1997   90.4163   12.0068 C.ar    1  UNL1        0.0009
      8 C          63.8279   89.8314   13.2370 C.ar    1  UNL1        0.0136
      9 C          63.8045   88.3480   13.4582 C.ar    1  UNL1        0.0578
     10 CL         64.4326   87.7631   14.6884 Cl      1  UNL1       -0.0822
     11 C          63.1529   87.4494   12.4492 C.ar    1  UNL1        0.0136
     12 C          63.1294   85.9660   12.6704 C.ar    1  UNL1        0.0375
     13 H          62.0474   83.0228   11.2524 H       1  UNL1        0.2922
     14 C          64.4795   90.7299   14.2460 C.ar    1  UNL1        0.0392
     15 C          65.8550   91.2711   13.9907 C.ar    1  UNL1        0.1022
     16 N          66.5066   92.1697   14.9997 N.ar    1  UNL1       -0.2224
     17 C          65.7827   92.5271   16.2639 C.ar    1  UNL1        0.1989
     18 N          64.4072   91.9860   16.5192 N.ar    1  UNL1       -0.2224
     19 C          63.7556   91.0874   15.5102 C.ar    1  UNL1        0.1022
@<TRIPOS>BOND
     1     1     2    1
     2     2     3   ar
     3     3     4   ar
     4     4     5   ar
     5     5     6   ar
     6     6     7   ar
     7     7     8   ar
     8     8    14    1
     9    14    15   ar
    10    15    16   ar
    11    16    17   ar
    12    17    18   ar
    13    18    19   ar
    14     8     9   ar
    15     9    10    1
    16     9    11   ar
    17    11    12   ar
    18    12     2   ar
    19    11     5   ar
    20    19    14   ar
    21     1    13    1
@<TRIPOS>MOLECULE
*****
 19 21 0 0 0
SMALL
GASTEIGER

@<TRIPOS>ATOM
      1 O          62.9448   90.7997   11.2121 O.3     1  UNL1       -0.5055
      2 C          63.3525   89.7732   12.2270 C.ar    1  UNL1        0.1337
      3 C          64.0963   90.1921   13.4604 C.ar    1  UNL1        0.0366
      4 C          64.5039   89.1656   14.4753 C.ar    1  UNL1        0.0031
      5 C          64.1677   87.7202   14.2569 C.ar    1  UNL1        0.0010
      6 C          64.5754   86.6936   15.2718 C.ar    1  UNL1        0.0001
      7 C          64.2392   85.2482   15.0534 C.ar    1  UNL1        0.0009
      8 C          63.4954   84.8293   13.8200 C.ar    1  UNL1        0.0136
      9 C          63.0878   85.8558   12.8050 C.ar    1  UNL1        0.0578
     10 CL         62.3440   85.4369   11.5717 Cl      1  UNL1       -0.0822
     11 C          63.4239   87.3013   13.0235 C.ar    1  UNL1        0.0136
     12 C          63.0163   88.3278   12.0086 C.ar    1  UNL1        0.0375
     13 H          63.1548   91.7026   11.3486 H       1  UNL1        0.2922
     14 C          63.1593   83.3839   13.6015 C.ar    1  UNL1        0.0392
     15 C          62.0530   82.7441   14.3870 C.ar    1  UNL1        0.1022
     16 N          61.7169   81.2987   14.1686 N.ar    1  UNL1       -0.2224
     17 C          62.4869   80.4930   13.1647 C.ar    1  UNL1        0.1989
     18 N          63.5931   81.1327   12.3792 N.ar    1  UNL1       -0.2224
     19 C          63.9293   82.5782   12.5976 C.ar    1  UNL1        0.1022
@<TRIPOS>BOND
     1     1     2    1
     2     2     3   ar
     3     3     4   ar
     4     4     5   ar
     5     5     6   ar
     6     6     7   ar
     7     7     8   ar
     8     8    14    1
     9    14    15   ar
    10    15    16   ar
    11    16    17   ar
    12    17    18   ar
    13    18    19   ar
    14     8     9   ar
    15     9    10    1
    16     9    11   ar
    17    11    12   ar
    18    12     2   ar
    19    11     5   ar
    20    19    14   ar
    21     1    13    1
@<TRIPOS>MOLECULE
*****
 19 21 0 0 0
SMALL
GASTEIGER

@<TRIPOS>ATOM
      1 O          66.8421   95.1396   11.4109 O.3     1  UNL1       -0.5055
      2 C          66.2733   93.9368   12.1036 C.ar    1  UNL1        0.1337
      3 C          66.7050   93.6019   13.5005 C.ar    1  UNL1        0.0366
      4 C          66.1362   92.3991   14.1932 C.ar    1  UNL1        0.0031
      5 C          65.1357   91.5313   13.4890 C.ar    1  UNL1        0.0010
      6 C          64.5669   90.3286   14.1818 C.ar    1  UNL1        0.0001
      7 C          63.5664   89.4608   13.4776 C.ar    1  UNL1        0.0009
      8 C          63.1347   89.7957   12.0806 C.ar    1  UNL1        0.0136
      9 C          63.7035   90.9985   11.3879 C.ar    1  UNL1        0.0578
     10 CL         63.2718   91.3334    9.9910 Cl      1  UNL1       -0.0822
     11 C          64.7040   91.8663   12.0921 C.ar    1  UNL1        0.0136
     12 C          65.2728   93.0690   11.3994 C.ar    1  UNL1        0.0375
     13 H          67.4671   95.6817   11.8508 H       1  UNL1        0.2922
     14 C          62.1342   88.9279   11.3764 C.ar    1  UNL1        0.0392
     15 C          62.4394   87.4802   11.1293 C.ar    1  UNL1        0.1022
     16 N          61.4389   86.6124   10.4251 N.ar    1  UNL1       -0.2224
     17 C          60.1332   87.1922    9.9680 C.ar    1  UNL1        0.1989
     18 N          59.8280   88.6399   10.2151 N.ar    1  UNL1       -0.2224
     19 C          60.8285   89.5078   10.9194 C.ar    1  UNL1        0.1022
@<TRIPOS>BOND
     1     1     2    1
     2     2     3   ar
     3     3     4   ar
     4     4     5   ar
     5     5     6   ar
     6     6     7   ar
     7     7     8   ar
     8     8    14    1
     9    14    15   ar
    10    15    16   ar
    11    16    17   ar
    12    17    18   ar
    13    18    19   ar
    14     8     9   ar
    15     9    10    1
    16     9    11   ar
    17    11    12   ar
    18    12     2   ar
    19    11     5   ar
    20    19    14   ar
    21     1    13    1
@<TRIPOS>MOLECULE
*****
 19 21 0 0 0
SMALL
GASTEIGER

@<TRIPOS>ATOM
      1 O          64.6399   92.0259   14.2291 O.3     1  UNL1       -0.5055
      2 C          64.3205   90.5852   13.9599 C.ar    1  UNL1        0.1337
      3 C          64.7137   89.5317   14.9526 C.ar    1  UNL1        0.0366
      4 C          64.3943   88.0910   14.6834 C.ar    1  UNL1        0.0031
      5 C          63.6816   87.7039   13.4216 C.ar    1  UNL1        0.0010
      6 C          63.3622   86.2632   13.1525 C.ar    1  UNL1        0.0001
      7 C          62.6495   85.8761   11.8907 C.ar    1  UNL1        0.0009
      8 C          62.2562   86.9296   10.8980 C.ar    1  UNL1        0.0136
      9 C          62.5757   88.3703   11.1671 C.ar    1  UNL1        0.0578
     10 CL         62.1825   89.4238   10.1744 Cl      1  UNL1       -0.0822
     11 C          63.2884   88.7574   12.4290 C.ar    1  UNL1        0.0136
     12 C          63.6078   90.1981   12.6981 C.ar    1  UNL1        0.0375
     13 H          65.0851   92.2677   15.0173 H       1  UNL1        0.2922
     14 C          61.5436   86.5425    9.6361 C.ar    1  UNL1        0.0392
     15 C          62.2624   85.7570    8.5795 C.ar    1  UNL1        0.1022
     16 N          61.5498   85.3699    7.3177 N.ar    1  UNL1       -0.2224
     17 C          60.1183   85.7682    7.1125 C.ar    1  UNL1        0.1989
     18 N          59.3994   86.5536    8.1690 N.ar    1  UNL1       -0.2224
     19 C          60.1121   86.9408    9.4309 C.ar    1  UNL1        0.1022
@<TRIPOS>BOND
     1     1     2    1
     2     2     3   ar
     3     3     4   ar
     4     4     5   ar
     5     5     6   ar
     6     6     7   ar
     7     7     8   ar
     8     8    14    1
     9    14    15   ar
    10    15    16   ar
    11    16    17   ar
    12    17    18   ar
    13    18    19   ar
    14     8     9   ar
    15     9    10    1
    16     9    11   ar
    17    11    12   ar
    18    12     2   ar
    19    11     5   ar
    20    19    14   ar
    21     1    13    1
