@<TRIPOS>MOLECULE
*****
 33 37 0 0 0
SMALL
GASTEIGER

@<TRIPOS>ATOM
      1 C          61.8937   89.6251   11.8560 C.3     1  UNL1        0.1292
      2 C          60.7911   90.4854   11.3138 C.3     1  UNL1        0.0313
      3 C          63.7331   83.3535   11.6723 C.ar    1  UNL1        0.1578
      4 C          63.5360   83.1595   10.1980 C.ar    1  UNL1        0.1356
      5 N          63.0499   84.2974    9.3502 N.ar    1  UNL1       -0.2407
      6 C          62.7609   85.6293    9.9766 C.ar    1  UNL1        0.0815
      7 C          62.2747   86.7672    9.1288 C.ar    1  UNL1        0.0188
      8 C          61.9857   88.0991    9.7553 C.ar    1  UNL1       -0.0009
      9 C          62.1828   88.2932   11.2296 C.ar    1  UNL1        0.0000
     10 C          62.6689   87.1552   12.0774 C.ar    1  UNL1       -0.0008
     11 C          62.9580   85.8233   11.4509 C.ar    1  UNL1        0.0205
     12 C          63.4441   84.6854   12.2987 C.ar    1  UNL1        0.0400
     13 O          64.2193   82.2155   12.5201 O.3     1  UNL1       -0.4712
     14 C          63.2356   81.3553   13.2565 C.3     1  UNL1        0.2374
     15 C          62.3583   81.9563   14.3143 C.3     1  UNL1        0.1894
     16 C          62.4348   84.1999   15.6222 C.3     1  UNL1        0.1743
     17 O          62.9588   82.8140   15.3885 O.3     1  UNL1       -0.3471
     18 N          62.7073   90.0966   13.0246 N.ar    1  UNL1       -0.2248
     19 N          62.4646   89.7523   14.4643 N.ar    1  UNL1       -0.0635
     20 N          63.5138   90.4382   15.2882 N.ar    1  UNL1       -0.1286
     21 C          64.4049   91.2064   14.3578 C.ar    1  UNL1        0.1279
     22 C          65.6059   92.0709   14.6036 C.ar    1  UNL1        0.0417
     23 C          66.3083   92.7243   13.4506 C.ar    1  UNL1        0.0852
     24 N          65.8100   92.5132   12.0516 N.ar    1  UNL1       -0.2649
     25 C          64.6091   91.6487   11.8057 C.ar    1  UNL1        0.2841
     26 O          64.1107   91.4376   10.4068 O.2     1  UNL1       -0.2649
     27 C          63.9065   90.9953   12.9588 C.ar    1  UNL1        0.1553
     28 C          66.5125   93.1666   10.8986 C.ar    1  UNL1        0.1156
     29 C          66.2671   94.5559   10.3893 C.ar    1  UNL1        0.0411
     30 C          67.1868   94.7933    9.2284 C.ar    1  UNL1        0.0692
     31 C          67.2768   96.0523    8.4179 C.3     1  UNL1        0.0528
     32 N          68.0007   93.5506    9.0201 N.ar    1  UNL1       -0.2120
     33 S          67.5840   92.5452   10.0524 S.2     1  UNL1        0.0306
@<TRIPOS>BOND
     1    16    17    1
     2    17    15    1
     3    15    14    1
     4    14    13    1
     5    13     3    1
     6     3     4   ar
     7     4     5   ar
     8     5     6   ar
     9     6     7   ar
    10     7     8   ar
    11     8     9   ar
    12     9     1    1
    13     1     2    1
    14     1    18    1
    15    18    19   ar
    16    19    20   ar
    17    20    21   ar
    18    21    22   ar
    19    22    23   ar
    20    23    24   ar
    21    24    28    1
    22    28    29   ar
    23    29    30   ar
    24    30    31    1
    25    30    32   ar
    26    32    33   ar
    27    24    25   ar
    28    25    26    2
    29    25    27   ar
    30     9    10   ar
    31    10    11   ar
    32    11    12   ar
    33    12     3   ar
    34    11     6   ar
    35    27    18   ar
    36    27    21   ar
    37    33    28   ar
@<TRIPOS>MOLECULE
*****
 33 37 0 0 0
SMALL
GASTEIGER

@<TRIPOS>ATOM
      1 C          60.7915   89.5848   11.5555 C.3     1  UNL1        0.1292
      2 C          59.5601   89.7045   12.4038 C.3     1  UNL1        0.0313
      3 C          66.4152   92.9095   11.2916 C.ar    1  UNL1        0.1578
      4 C          66.8798   92.5721   12.6773 C.ar    1  UNL1        0.1356
      5 N          66.0338   91.7046   13.5615 N.ar    1  UNL1       -0.2407
      6 C          64.7232   91.1747   13.0600 C.ar    1  UNL1        0.0815
      7 C          63.8772   90.3073   13.9443 C.ar    1  UNL1        0.0188
      8 C          62.5667   89.7773   13.4428 C.ar    1  UNL1       -0.0009
      9 C          62.1020   90.1148   12.0570 C.ar    1  UNL1        0.0000
     10 C          62.9480   90.9822   11.1728 C.ar    1  UNL1       -0.0008
     11 C          64.2587   91.5122   11.6743 C.ar    1  UNL1        0.0205
     12 C          65.1046   92.3796   10.7901 C.ar    1  UNL1        0.0400
     13 O          67.2612   93.7770   10.4074 O.3     1  UNL1       -0.4712
     14 C          66.6374   94.5090    9.2564 C.3     1  UNL1        0.2374
     15 C          66.6198   96.0089    9.2424 C.3     1  UNL1        0.1894
     16 C          66.0452   96.8559   11.6304 C.3     1  UNL1        0.1743
     17 O          66.9987   96.7749   10.4752 O.3     1  UNL1       -0.3471
     18 N          60.7122   88.9352   10.2059 N.ar    1  UNL1       -0.2248
     19 N          60.0834   89.5257    8.9787 N.ar    1  UNL1       -0.0635
     20 N          60.2304   88.5364    7.8607 N.ar    1  UNL1       -0.1286
     21 C          60.9500   87.3345    8.3970 C.ar    1  UNL1        0.1279
     22 C          61.3726   86.0475    7.7528 C.ar    1  UNL1        0.0417
     23 C          62.0930   85.0070    8.5580 C.ar    1  UNL1        0.0852
     24 N          62.3908   85.2534   10.0074 N.ar    1  UNL1       -0.2649
     25 C          61.9682   86.5404   10.6516 C.ar    1  UNL1        0.2841
     26 O          62.2659   86.7868   12.1009 O.2     1  UNL1       -0.2649
     27 C          61.2478   87.5810    9.8463 C.ar    1  UNL1        0.1553
     28 C          63.1112   84.2128   10.8125 C.ar    1  UNL1        0.1156
     29 C          62.8241   83.8463   12.2384 C.ar    1  UNL1        0.0411
     30 C          63.7806   82.7630   12.6401 C.ar    1  UNL1        0.0692
     31 C          63.8472   82.0991   13.9836 C.3     1  UNL1        0.0528
     32 N          64.6590   82.4599   11.4625 N.ar    1  UNL1       -0.2120
     33 S          64.2452   83.3560   10.3329 S.2     1  UNL1        0.0306
@<TRIPOS>BOND
     1    16    17    1
     2    17    15    1
     3    15    14    1
     4    14    13    1
     5    13     3    1
     6     3     4   ar
     7     4     5   ar
     8     5     6   ar
     9     6     7   ar
    10     7     8   ar
    11     8     9   ar
    12     9     1    1
    13     1     2    1
    14     1    18    1
    15    18    19   ar
    16    19    20   ar
    17    20    21   ar
    18    21    22   ar
    19    22    23   ar
    20    23    24   ar
    21    24    28    1
    22    28    29   ar
    23    29    30   ar
    24    30    31    1
    25    30    32   ar
    26    32    33   ar
    27    24    25   ar
    28    25    26    2
    29    25    27   ar
    30     9    10   ar
    31    10    11   ar
    32    11    12   ar
    33    12     3   ar
    34    11     6   ar
    35    27    18   ar
    36    27    21   ar
    37    33    28   ar
@<TRIPOS>MOLECULE
*****
 33 37 0 0 0
SMALL
GASTEIGER

@<TRIPOS>ATOM
      1 C          61.1149   89.2996   11.9792 C.3     1  UNL1        0.1292
      2 C          59.8402   89.9923   12.3606 C.3     1  UNL1        0.0313
      3 C          66.3229   93.2527   11.9879 C.ar    1  UNL1        0.1578
      4 C          67.0122   92.6264   13.1637 C.ar    1  UNL1        0.1356
      5 N          66.3843   91.4600   13.8674 N.ar    1  UNL1       -0.2407
      6 C          65.0670   90.9199   13.3954 C.ar    1  UNL1        0.0815
      7 C          64.4390   89.7535   14.0991 C.ar    1  UNL1        0.0188
      8 C          63.1217   89.2134   13.6270 C.ar    1  UNL1       -0.0009
      9 C          62.4322   89.8397   12.4512 C.ar    1  UNL1        0.0000
     10 C          63.0602   91.0061   11.7475 C.ar    1  UNL1       -0.0008
     11 C          64.3776   91.5462   12.2196 C.ar    1  UNL1        0.0205
     12 C          65.0055   92.7126   11.5159 C.ar    1  UNL1        0.0400
     13 O          66.9508   94.4191   11.2842 O.3     1  UNL1       -0.4712
     14 C          66.6563   94.6676    9.8346 C.3     1  UNL1        0.2374
     15 C          67.7469   94.5321    8.8137 C.3     1  UNL1        0.1894
     16 C          68.5541   92.1093    9.2920 C.3     1  UNL1        0.1743
     17 O          68.1451   93.1737    8.3174 O.3     1  UNL1       -0.3471
     18 N          61.0722   88.0668   11.1257 N.ar    1  UNL1       -0.2248
     19 N          61.4708   86.6851   11.5520 N.ar    1  UNL1       -0.0635
     20 N          61.2683   85.7636   10.3859 N.ar    1  UNL1       -0.1286
     21 C          60.7445   86.5759    9.2388 C.ar    1  UNL1        0.1279
     22 C          60.3622   86.2033    7.8370 C.ar    1  UNL1        0.0417
     23 C          59.8586   87.2541    6.8925 C.ar    1  UNL1        0.0852
     24 N          59.7374   88.6776    7.3497 N.ar    1  UNL1       -0.2649
     25 C          60.1197   89.0502    8.7515 C.ar    1  UNL1        0.2841
     26 O          59.9984   90.4737    9.2087 O.2     1  UNL1       -0.2649
     27 C          60.6232   87.9993    9.6961 C.ar    1  UNL1        0.1553
     28 C          59.2339   89.7284    6.4051 C.ar    1  UNL1        0.1156
     29 C          60.0795   90.6082    5.5328 C.ar    1  UNL1        0.0411
     30 C          59.1645   91.5074    4.7556 C.ar    1  UNL1        0.0692
     31 C          59.5866   92.5480    3.7610 C.3     1  UNL1        0.0528
     32 N          57.7532   91.1834    5.1475 N.ar    1  UNL1       -0.2120
     33 S          57.7961   90.0839    6.1670 S.2     1  UNL1        0.0306
@<TRIPOS>BOND
     1    16    17    1
     2    17    15    1
     3    15    14    1
     4    14    13    1
     5    13     3    1
     6     3     4   ar
     7     4     5   ar
     8     5     6   ar
     9     6     7   ar
    10     7     8   ar
    11     8     9   ar
    12     9     1    1
    13     1     2    1
    14     1    18    1
    15    18    19   ar
    16    19    20   ar
    17    20    21   ar
    18    21    22   ar
    19    22    23   ar
    20    23    24   ar
    21    24    28    1
    22    28    29   ar
    23    29    30   ar
    24    30    31    1
    25    30    32   ar
    26    32    33   ar
    27    24    25   ar
    28    25    26    2
    29    25    27   ar
    30     9    10   ar
    31    10    11   ar
    32    11    12   ar
    33    12     3   ar
    34    11     6   ar
    35    27    18   ar
    36    27    21   ar
    37    33    28   ar
@<TRIPOS>MOLECULE
*****
 33 37 0 0 0
SMALL
GASTEIGER

@<TRIPOS>ATOM
      1 C          60.7519   89.6770   11.0167 C.3     1  UNL1        0.1292
      2 C          59.7051   89.7223   12.0900 C.3     1  UNL1        0.0313
      3 C          66.0505   91.7794   14.2191 C.ar    1  UNL1        0.1578
      4 C          66.6420   92.5571   13.0810 C.ar    1  UNL1        0.1356
      5 N          65.9372   92.6033   11.7577 N.ar    1  UNL1       -0.2407
      6 C          64.6409   91.8717   11.5724 C.ar    1  UNL1        0.0815
      7 C          63.9361   91.9179   10.2491 C.ar    1  UNL1        0.0188
      8 C          62.6398   91.1863   10.0639 C.ar    1  UNL1       -0.0009
      9 C          62.0482   90.4085   11.2019 C.ar    1  UNL1        0.0000
     10 C          62.7530   90.3624   12.5253 C.ar    1  UNL1       -0.0008
     11 C          64.0494   91.0940   12.7105 C.ar    1  UNL1        0.0205
     12 C          64.7542   91.0478   14.0338 C.ar    1  UNL1        0.0400
     13 O          66.7552   91.7332   15.5424 O.3     1  UNL1       -0.4712
     14 C          67.3620   92.9807   16.1129 C.3     1  UNL1        0.2374
     15 C          68.8497   93.1709   16.0867 C.3     1  UNL1        0.1894
     16 C          69.7563   92.0297   13.9360 C.3     1  UNL1        0.1743
     17 O          69.5715   93.2594   14.7748 O.3     1  UNL1       -0.3471
     18 N          60.5024   88.9000    9.7581 N.ar    1  UNL1       -0.2248
     19 N          59.7214   89.3751    8.5688 N.ar    1  UNL1       -0.0635
     20 N          59.7264   88.2803    7.5434 N.ar    1  UNL1       -0.1286
     21 C          60.5105   87.1285    8.0990 C.ar    1  UNL1        0.1279
     22 C          60.8498   85.7805    7.5354 C.ar    1  UNL1        0.0417
     23 C          61.6686   84.8155    8.3405 C.ar    1  UNL1        0.0852
     24 N          62.1482   85.1984    9.7092 N.ar    1  UNL1       -0.2649
     25 C          61.8090   86.5465   10.2728 C.ar    1  UNL1        0.2841
     26 O          62.2886   86.9295   11.6415 O.2     1  UNL1       -0.2649
     27 C          60.9901   87.5116    9.4677 C.ar    1  UNL1        0.1553
     28 C          62.9670   84.2333   10.5143 C.ar    1  UNL1        0.1156
     29 C          62.7317   83.8589   11.9476 C.ar    1  UNL1        0.0411
     30 C          63.7842   82.8674   12.3464 C.ar    1  UNL1        0.0692
     31 C          63.9260   82.2266   13.6953 C.3     1  UNL1        0.0528
     32 N          64.6701   82.6290   11.1596 N.ar    1  UNL1       -0.2120
     33 S          64.1650   83.4732   10.0272 S.2     1  UNL1        0.0306
@<TRIPOS>BOND
     1    16    17    1
     2    17    15    1
     3    15    14    1
     4    14    13    1
     5    13     3    1
     6     3     4   ar
     7     4     5   ar
     8     5     6   ar
     9     6     7   ar
    10     7     8   ar
    11     8     9   ar
    12     9     1    1
    13     1     2    1
    14     1    18    1
    15    18    19   ar
    16    19    20   ar
    17    20    21   ar
    18    21    22   ar
    19    22    23   ar
    20    23    24   ar
    21    24    28    1
    22    28    29   ar
    23    29    30   ar
    24    30    31    1
    25    30    32   ar
    26    32    33   ar
    27    24    25   ar
    28    25    26    2
    29    25    27   ar
    30     9    10   ar
    31    10    11   ar
    32    11    12   ar
    33    12     3   ar
    34    11     6   ar
    35    27    18   ar
    36    27    21   ar
    37    33    28   ar
@<TRIPOS>MOLECULE
*****
 33 37 0 0 0
SMALL
GASTEIGER

@<TRIPOS>ATOM
      1 C          60.8667   89.7488   10.9815 C.3     1  UNL1        0.1292
      2 C          59.8612   89.8267   12.0919 C.3     1  UNL1        0.0313
      3 C          66.3066   91.8495   13.9385 C.ar    1  UNL1        0.1578
      4 C          66.8606   92.6021   12.7651 C.ar    1  UNL1        0.1356
      5 N          66.1049   92.6335   11.4697 N.ar    1  UNL1       -0.2407
      6 C          64.7954   91.9123   11.3477 C.ar    1  UNL1        0.0815
      7 C          64.0398   91.9437   10.0523 C.ar    1  UNL1        0.0188
      8 C          62.7302   91.2226    9.9302 C.ar    1  UNL1       -0.0009
      9 C          62.1762   90.4699   11.1035 C.ar    1  UNL1        0.0000
     10 C          62.9318   90.4385   12.3989 C.ar    1  UNL1       -0.0008
     11 C          64.2415   91.1598   12.5210 C.ar    1  UNL1        0.0205
     12 C          64.9971   91.1283   13.8164 C.ar    1  UNL1        0.0400
     13 O          67.0622   91.8181   15.2339 O.3     1  UNL1       -0.4712
     14 C          66.6659   92.7316   16.3556 C.3     1  UNL1        0.2374
     15 C          65.4688   92.4076   17.1994 C.3     1  UNL1        0.1894
     16 C          63.5151   90.7942   16.6247 C.3     1  UNL1        0.1743
     17 O          64.1399   92.1559   16.5507 O.3     1  UNL1       -0.3471
     18 N          60.5625   88.9497    9.7490 N.ar    1  UNL1       -0.2248
     19 N          59.7507   89.4131    8.5758 N.ar    1  UNL1       -0.0635
     20 N          59.7032   88.2967    7.5751 N.ar    1  UNL1       -0.1286
     21 C          60.4857   87.1434    8.1297 C.ar    1  UNL1        0.1279
     22 C          60.7832   85.7779    7.5849 C.ar    1  UNL1        0.0417
     23 C          61.6118   84.8159    8.3837 C.ar    1  UNL1        0.0852
     24 N          62.1429   85.2194    9.7273 N.ar    1  UNL1       -0.2649
     25 C          61.8454   86.5850   10.2721 C.ar    1  UNL1        0.2841
     26 O          62.3764   86.9886   11.6156 O.2     1  UNL1       -0.2649
     27 C          61.0167   87.5470    9.4733 C.ar    1  UNL1        0.1553
     28 C          62.9715   84.2574   10.5260 C.ar    1  UNL1        0.1156
     29 C          62.7790   83.9198   11.9748 C.ar    1  UNL1        0.0411
     30 C          63.8266   82.9179   12.3603 C.ar    1  UNL1        0.0692
     31 C          64.0034   82.3050   13.7180 C.3     1  UNL1        0.0528
     32 N          64.6666   82.6362   11.1498 N.ar    1  UNL1       -0.2120
     33 S          64.1380   83.4642   10.0161 S.2     1  UNL1        0.0306
@<TRIPOS>BOND
     1    16    17    1
     2    17    15    1
     3    15    14    1
     4    14    13    1
     5    13     3    1
     6     3     4   ar
     7     4     5   ar
     8     5     6   ar
     9     6     7   ar
    10     7     8   ar
    11     8     9   ar
    12     9     1    1
    13     1     2    1
    14     1    18    1
    15    18    19   ar
    16    19    20   ar
    17    20    21   ar
    18    21    22   ar
    19    22    23   ar
    20    23    24   ar
    21    24    28    1
    22    28    29   ar
    23    29    30   ar
    24    30    31    1
    25    30    32   ar
    26    32    33   ar
    27    24    25   ar
    28    25    26    2
    29    25    27   ar
    30     9    10   ar
    31    10    11   ar
    32    11    12   ar
    33    12     3   ar
    34    11     6   ar
    35    27    18   ar
    36    27    21   ar
    37    33    28   ar
@<TRIPOS>MOLECULE
*****
 33 37 0 0 0
SMALL
GASTEIGER

@<TRIPOS>ATOM
      1 C          62.2797   85.4287    8.6872 C.3     1  UNL1        0.1292
      2 C          62.9345   85.1352    7.3699 C.3     1  UNL1        0.0313
      3 C          62.7854   84.3697   15.1194 C.ar    1  UNL1        0.1578
      4 C          63.8062   83.2740   15.0336 C.ar    1  UNL1        0.1356
      5 N          64.3176   82.8284   13.6957 N.ar    1  UNL1       -0.2407
      6 C          63.8081   83.4785   12.4436 C.ar    1  UNL1        0.0815
      7 C          64.3195   83.0329   11.1057 C.ar    1  UNL1        0.0188
      8 C          63.8100   83.6829    9.8536 C.ar    1  UNL1       -0.0009
      9 C          62.7891   84.7787    9.9393 C.ar    1  UNL1        0.0000
     10 C          62.2778   85.2243   11.2772 C.ar    1  UNL1       -0.0008
     11 C          62.7873   84.5741   12.5294 C.ar    1  UNL1        0.0205
     12 C          62.2759   85.0197   13.8673 C.ar    1  UNL1        0.0400
     13 O          62.2740   84.8153   16.4573 O.3     1  UNL1       -0.4712
     14 C          63.0607   85.7997   17.2710 C.3     1  UNL1        0.2374
     15 C          62.6537   87.2431   17.3007 C.3     1  UNL1        0.1894
     16 C          63.2132   89.6753   16.5786 C.3     1  UNL1        0.1743
     17 O          63.2181   88.2024   16.2950 O.3     1  UNL1       -0.3471
     18 N          61.1155   86.3723    8.7523 N.ar    1  UNL1       -0.2248
     19 N          59.7498   86.1283    8.1819 N.ar    1  UNL1       -0.0635
     20 N          58.9028   87.3308    8.4763 N.ar    1  UNL1       -0.1286
     21 C          59.7450   88.3180    9.2287 C.ar    1  UNL1        0.1279
     22 C          59.4434   89.6798    9.7805 C.ar    1  UNL1        0.0417
     23 C          60.5093   90.4492   10.5029 C.ar    1  UNL1        0.0852
     24 N          61.8768   89.8569   10.6736 N.ar    1  UNL1       -0.2649
     25 C          62.1784   88.4951   10.1217 C.ar    1  UNL1        0.2841
     26 O          63.5459   87.9027   10.2923 O.2     1  UNL1       -0.2649
     27 C          61.1125   87.7256    9.3993 C.ar    1  UNL1        0.1553
     28 C          62.9426   90.6264   11.3960 C.ar    1  UNL1        0.1156
     29 C          63.9190   91.5788   10.7718 C.ar    1  UNL1        0.0411
     30 C          64.7989   92.1195   11.8595 C.ar    1  UNL1        0.0692
     31 C          65.9155   93.1055   11.6820 C.3     1  UNL1        0.0528
     32 N          64.3665   91.5013   13.1561 N.ar    1  UNL1       -0.2120
     33 S          63.2192   90.5785   12.8696 S.2     1  UNL1        0.0306
@<TRIPOS>BOND
     1    16    17    1
     2    17    15    1
     3    15    14    1
     4    14    13    1
     5    13     3    1
     6     3     4   ar
     7     4     5   ar
     8     5     6   ar
     9     6     7   ar
    10     7     8   ar
    11     8     9   ar
    12     9     1    1
    13     1     2    1
    14     1    18    1
    15    18    19   ar
    16    19    20   ar
    17    20    21   ar
    18    21    22   ar
    19    22    23   ar
    20    23    24   ar
    21    24    28    1
    22    28    29   ar
    23    29    30   ar
    24    30    31    1
    25    30    32   ar
    26    32    33   ar
    27    24    25   ar
    28    25    26    2
    29    25    27   ar
    30     9    10   ar
    31    10    11   ar
    32    11    12   ar
    33    12     3   ar
    34    11     6   ar
    35    27    18   ar
    36    27    21   ar
    37    33    28   ar
@<TRIPOS>MOLECULE
*****
 33 37 0 0 0
SMALL
GASTEIGER

@<TRIPOS>ATOM
      1 C          62.9348   83.2239   13.8783 C.3     1  UNL1        0.1292
      2 C          62.2830   82.0390   14.5274 C.3     1  UNL1        0.0313
      3 C          64.3746   89.5438   14.7362 C.ar    1  UNL1        0.1578
      4 C          63.8740   89.6444   16.1466 C.ar    1  UNL1        0.1356
      5 N          63.2857   88.4407   16.8213 N.ar    1  UNL1       -0.2407
      6 C          63.1980   87.1365   16.0856 C.ar    1  UNL1        0.0815
      7 C          62.6097   85.9329   16.7603 C.ar    1  UNL1        0.0188
      8 C          62.5220   84.6287   16.0245 C.ar    1  UNL1       -0.0009
      9 C          63.0225   84.5281   14.6140 C.ar    1  UNL1        0.0000
     10 C          63.6108   85.7317   13.9394 C.ar    1  UNL1       -0.0008
     11 C          63.6985   87.0360   14.6752 C.ar    1  UNL1        0.0205
     12 C          64.2868   88.2396   14.0005 C.ar    1  UNL1        0.0400
     13 O          64.9628   90.7474   14.0615 O.3     1  UNL1       -0.4712
     14 C          66.2660   91.3143   14.5415 C.3     1  UNL1        0.2374
     15 C          66.3145   92.6973   15.1201 C.3     1  UNL1        0.1894
     16 C          66.3436   93.7758   12.7566 C.3     1  UNL1        0.1743
     17 O          66.1059   93.8891   14.2333 O.3     1  UNL1       -0.3471
     18 N          63.4988   83.1046   12.4935 N.ar    1  UNL1       -0.2248
     19 N          64.4826   82.0723   12.0281 N.ar    1  UNL1       -0.0635
     20 N          64.7698   82.3263   10.5779 N.ar    1  UNL1       -0.1286
     21 C          63.9635   83.5155   10.1471 C.ar    1  UNL1        0.1279
     22 C          63.8431   84.2225    8.8297 C.ar    1  UNL1        0.0417
     23 C          62.9371   85.4106    8.6962 C.ar    1  UNL1        0.0852
     24 N          62.1515   85.8916    9.8800 N.ar    1  UNL1       -0.2649
     25 C          62.2720   85.1846   11.1974 C.ar    1  UNL1        0.2841
     26 O          61.4864   85.6655   12.3813 O.2     1  UNL1       -0.2649
     27 C          63.1780   83.9965   11.3310 C.ar    1  UNL1        0.1553
     28 C          61.2456   87.0796    9.7464 C.ar    1  UNL1        0.1156
     29 C          61.2003   88.2620   10.6683 C.ar    1  UNL1        0.0411
     30 C          60.1526   89.2069   10.1591 C.ar    1  UNL1        0.0692
     31 C          59.7736   90.5198   10.7779 C.3     1  UNL1        0.0528
     32 N          59.5503   88.6086    8.9224 N.ar    1  UNL1       -0.2120
     33 S          60.2259   87.2938    8.6674 S.2     1  UNL1        0.0306
@<TRIPOS>BOND
     1    16    17    1
     2    17    15    1
     3    15    14    1
     4    14    13    1
     5    13     3    1
     6     3     4   ar
     7     4     5   ar
     8     5     6   ar
     9     6     7   ar
    10     7     8   ar
    11     8     9   ar
    12     9     1    1
    13     1     2    1
    14     1    18    1
    15    18    19   ar
    16    19    20   ar
    17    20    21   ar
    18    21    22   ar
    19    22    23   ar
    20    23    24   ar
    21    24    28    1
    22    28    29   ar
    23    29    30   ar
    24    30    31    1
    25    30    32   ar
    26    32    33   ar
    27    24    25   ar
    28    25    26    2
    29    25    27   ar
    30     9    10   ar
    31    10    11   ar
    32    11    12   ar
    33    12     3   ar
    34    11     6   ar
    35    27    18   ar
    36    27    21   ar
    37    33    28   ar
@<TRIPOS>MOLECULE
*****
 33 37 0 0 0
SMALL
GASTEIGER

@<TRIPOS>ATOM
      1 C          63.7724   90.5974   13.0220 C.3     1  UNL1        0.1292
      2 C          65.0004   91.3128   12.5423 C.3     1  UNL1        0.0313
      3 C          61.2747   86.6998    8.4046 C.ar    1  UNL1        0.1578
      4 C          59.9764   87.4336    8.2438 C.ar    1  UNL1        0.1356
      5 N          59.6969   88.6534    9.0709 N.ar    1  UNL1       -0.2407
      6 C          60.7158   89.1394   10.0587 C.ar    1  UNL1        0.0815
      7 C          60.4363   90.3592   10.8857 C.ar    1  UNL1        0.0188
      8 C          61.4551   90.8452   11.8735 C.ar    1  UNL1       -0.0009
      9 C          62.7535   90.1114   12.0343 C.ar    1  UNL1        0.0000
     10 C          63.0330   88.8916   11.2072 C.ar    1  UNL1       -0.0008
     11 C          62.0141   88.4056   10.2194 C.ar    1  UNL1        0.0205
     12 C          62.2936   87.1858    9.3923 C.ar    1  UNL1        0.0400
     13 O          61.5542   85.4801    7.5775 O.3     1  UNL1       -0.4712
     14 C          62.7914   84.6703    7.8295 C.3     1  UNL1        0.2374
     15 C          63.2987   84.4920    9.2299 C.3     1  UNL1        0.1894
     16 C          63.7315   82.3180   10.5851 C.3     1  UNL1        0.1743
     17 O          64.1779   83.3240    9.5660 O.3     1  UNL1       -0.3471
     18 N          63.5632   90.3679   14.4896 N.ar    1  UNL1       -0.2248
     19 N          63.4185   91.4322   15.5366 N.ar    1  UNL1       -0.0635
     20 N          63.2279   90.7560   16.8618 N.ar    1  UNL1       -0.1286
     21 C          63.2549   89.2736   16.6339 C.ar    1  UNL1        0.1279
     22 C          63.1175   88.1113   17.5720 C.ar    1  UNL1        0.0417
     23 C          63.1873   86.7090   17.0439 C.ar    1  UNL1        0.0852
     24 N          63.3945   86.4691   15.5777 N.ar    1  UNL1       -0.2649
     25 C          63.5319   87.6315   14.6397 C.ar    1  UNL1        0.2841
     26 O          63.7391   87.3917   13.1735 O.2     1  UNL1       -0.2649
     27 C          63.4621   89.0338   15.1678 C.ar    1  UNL1        0.1553
     28 C          63.4643   85.0669   15.0497 C.ar    1  UNL1        0.1156
     29 C          62.3252   84.0935   14.9793 C.ar    1  UNL1        0.0411
     30 C          62.8424   82.8169   14.3855 C.ar    1  UNL1        0.0692
     31 C          62.0415   81.5740   14.1326 C.3     1  UNL1        0.0528
     32 N          64.3013   83.0012   14.0889 N.ar    1  UNL1       -0.2120
     33 S          64.6856   84.3918   14.4994 S.2     1  UNL1        0.0306
@<TRIPOS>BOND
     1    16    17    1
     2    17    15    1
     3    15    14    1
     4    14    13    1
     5    13     3    1
     6     3     4   ar
     7     4     5   ar
     8     5     6   ar
     9     6     7   ar
    10     7     8   ar
    11     8     9   ar
    12     9     1    1
    13     1     2    1
    14     1    18    1
    15    18    19   ar
    16    19    20   ar
    17    20    21   ar
    18    21    22   ar
    19    22    23   ar
    20    23    24   ar
    21    24    28    1
    22    28    29   ar
    23    29    30   ar
    24    30    31    1
    25    30    32   ar
    26    32    33   ar
    27    24    25   ar
    28    25    26    2
    29    25    27   ar
    30     9    10   ar
    31    10    11   ar
    32    11    12   ar
    33    12     3   ar
    34    11     6   ar
    35    27    18   ar
    36    27    21   ar
    37    33    28   ar
