@<TRIPOS>MOLECULE
*****
 42 47 0 0 0
SMALL
GASTEIGER

@<TRIPOS>ATOM
      1 N          62.3874   87.1471   11.4956 N.am    1  UNL1       -0.2222
      2 C          62.2144   85.8160   10.8259 C.2     1  UNL1        0.3219
      3 O          61.4640   85.5606    9.5525 O.2     1  UNL1       -0.2512
      4 N          62.9235   84.7852   11.6534 N.am    1  UNL1       -0.1907
      5 C          63.5347   85.4792   12.8344 C.2     1  UNL1        0.2529
      6 O          64.3364   84.8279   13.9221 O.2     1  UNL1       -0.2724
      7 C          63.2034   86.9390   12.7369 C.3     1  UNL1        0.1391
      8 C          62.7955   88.3639   12.5067 C.3     1  UNL1        0.0449
      9 C          63.2077   89.4285   13.4796 C.3     1  UNL1        0.0746
     10 N          64.0280   89.0682   14.6827 N.3     1  UNL1       -0.2676
     11 C          64.4359   87.6432   14.9129 C.3     1  UNL1        0.0746
     12 C          64.0236   86.5786   13.9400 C.3     1  UNL1        0.0449
     13 C          62.2296   90.8636   10.1125 C.ar    1  UNL1        0.2293
     14 C          62.7765   89.5542   10.5988 C.ar    1  UNL1        0.0924
     15 C          61.8404   88.4564   11.0092 C.ar    1  UNL1        0.1453
     16 N          60.3573   88.6679   10.9333 N.ar    1  UNL1       -0.2084
     17 C          59.8103   89.9771   10.4470 C.ar    1  UNL1        0.2027
     18 N          60.7465   91.0750   10.0365 N.ar    1  UNL1       -0.1892
     19 C          64.4275   92.1999   10.4772 C.3     1  UNL1        0.2542
     20 O          63.1656   91.9614    9.7021 O.3     1  UNL1       -0.4560
     21 C          63.0067   83.3181   11.3527 C.ar    1  UNL1        0.0622
     22 C          62.4008   82.3232   12.2978 C.ar    1  UNL1        0.0154
     23 C          62.4840   80.8560   11.9971 C.ar    1  UNL1        0.0013
     24 C          63.1732   80.3837   10.7513 C.ar    1  UNL1        0.0006
     25 C          63.7791   81.3786    9.8062 C.ar    1  UNL1        0.0013
     26 C          63.6958   82.8457   10.1070 C.ar    1  UNL1        0.0154
     27 C          63.2564   78.9165   10.4506 C.ar    1  UNL1        0.0070
     28 C          62.3792   77.8465   11.0301 C.ar    1  UNL1        0.0355
     29 S          62.8121   76.5304   10.4552 S.2     1  UNL1       -0.0853
     30 C          63.9568   76.7870    9.5205 C.ar    1  UNL1        0.0434
     31 C          64.2314   78.2616    9.5176 C.ar    1  UNL1        0.0081
     32 C          64.6970   75.7508    8.7278 C.2     1  UNL1        0.0789
     33 O          66.1969   75.7317    8.7341 O.co2   1  UNL1       -0.5441
     34 O          63.9375   74.7337    7.9287 O.co2   1  UNL1       -0.5441
     35 C          64.4403   90.1329   15.6556 C.3     1  UNL1        0.1183
     36 C          65.5262   91.1015   15.2918 C.ar    1  UNL1        0.0712
     37 N          66.4328   90.8111   14.1326 N.ar    1  UNL1       -0.2471
     38 C          67.5188   91.7798   13.7688 C.ar    1  UNL1        0.0985
     39 C          67.6981   93.0389   14.5641 C.ar    1  UNL1        0.0203
     40 C          66.7915   93.3293   15.7233 C.ar    1  UNL1       -0.0015
     41 C          65.7056   92.3606   16.0872 C.ar    1  UNL1       -0.0069
     42 C          64.7990   92.6510   17.2463 C.3     1  UNL1        0.0323
@<TRIPOS>UNITY_ATOM_ATTR
33 1
charge -1
@<TRIPOS>BOND
     1    19    20    1
     2    20    13    1
     3    13    14   ar
     4    14    15   ar
     5    15     1    1
     6     1     2   am
     7     2     3    2
     8     2     4   am
     9     4    21    1
    10    21    22   ar
    11    22    23   ar
    12    23    24   ar
    13    24    27    1
    14    27    28   ar
    15    28    29   ar
    16    29    30   ar
    17    30    32    1
    18    32    33   ar
    19    32    34   ar
    20    30    31   ar
    21    24    25   ar
    22    25    26   ar
    23     4     5   am
    24     5     6    2
    25     5     7    1
    26     7     8    1
    27     8     9    1
    28     9    10    1
    29    10    35    1
    30    35    36    1
    31    36    37   ar
    32    37    38   ar
    33    38    39   ar
    34    39    40   ar
    35    40    41   ar
    36    41    42    1
    37    10    11    1
    38    11    12    1
    39    15    16   ar
    40    16    17   ar
    41    17    18   ar
    42    18    13   ar
    43     7     1    1
    44    41    36   ar
    45    26    21   ar
    46    12     7    1
    47    31    27   ar
@<TRIPOS>MOLECULE
*****
 42 47 0 0 0
SMALL
GASTEIGER

@<TRIPOS>ATOM
      1 N          61.8740   87.1028   11.3600 N.am    1  UNL1       -0.2222
      2 C          61.6938   85.7283   10.7868 C.2     1  UNL1        0.3219
      3 O          60.7504   85.3497    9.6838 O.2     1  UNL1       -0.2512
      4 N          62.6228   84.7990   11.5103 N.am    1  UNL1       -0.1907
      5 C          63.3771   85.5990   12.5306 C.2     1  UNL1        0.2529
      6 O          64.4123   85.0685   13.4775 O.2     1  UNL1       -0.2724
      7 C          62.9143   87.0229   12.4377 C.3     1  UNL1        0.1391
      8 C          62.3555   88.3993   12.2300 C.3     1  UNL1        0.0449
      9 C          62.8468   89.5424   13.0677 C.3     1  UNL1        0.0746
     10 N          63.8969   89.3092   14.1131 N.3     1  UNL1       -0.2676
     11 C          64.4557   87.9328   14.3208 C.3     1  UNL1        0.0746
     12 C          63.9644   86.7896   13.4831 C.3     1  UNL1        0.0449
     13 C          60.2979   89.9141    9.0443 C.ar    1  UNL1        0.2293
     14 C          61.0296   88.6769    9.4735 C.ar    1  UNL1        0.0924
     15 C          61.1424   88.3399   10.9308 C.ar    1  UNL1        0.1453
     16 N          60.5236   89.2400   11.9588 N.ar    1  UNL1       -0.2084
     17 C          59.7919   90.4771   11.5297 C.ar    1  UNL1        0.2027
     18 N          59.6791   90.8141   10.0724 N.ar    1  UNL1       -0.1892
     19 C          59.3624   89.3861    6.6788 C.3     1  UNL1        0.2542
     20 O          60.1850   90.2512    7.5871 O.3     1  UNL1       -0.4560
     21 C          62.7714   83.3279   11.2578 C.ar    1  UNL1        0.0622
     22 C          62.3687   82.3413   12.3135 C.ar    1  UNL1        0.0154
     23 C          62.5173   80.8702   12.0610 C.ar    1  UNL1        0.0013
     24 C          63.0685   80.3856   10.7529 C.ar    1  UNL1        0.0006
     25 C          63.4712   81.3722    9.6971 C.ar    1  UNL1        0.0013
     26 C          63.3226   82.8434    9.9497 C.ar    1  UNL1        0.0154
     27 C          63.2171   78.9145   10.5004 C.ar    1  UNL1        0.0070
     28 C          62.4649   77.8199   11.1977 C.ar    1  UNL1        0.0355
     29 S          62.9268   76.5086   10.6346 S.2     1  UNL1       -0.0853
     30 C          63.9644   76.7928    9.5892 C.ar    1  UNL1        0.0434
     31 C          64.1438   78.2797    9.5063 C.ar    1  UNL1        0.0081
     32 C          64.6945   75.7697    8.7705 C.2     1  UNL1        0.0789
     33 O          66.1937   75.7264    8.7874 O.co2   1  UNL1       -0.5441
     34 O          63.9253   74.7899    7.9349 O.co2   1  UNL1       -0.5441
     35 C          64.3882   90.4524   14.9508 C.3     1  UNL1        0.1183
     36 C          65.1104   91.5983   14.3064 C.ar    1  UNL1        0.0712
     37 N          65.0346   91.7926   12.8210 N.ar    1  UNL1       -0.2471
     38 C          65.7570   92.9385   12.1766 C.ar    1  UNL1        0.0985
     39 C          66.5550   93.8901   13.0177 C.ar    1  UNL1        0.0203
     40 C          66.6308   93.6959   14.5031 C.ar    1  UNL1       -0.0015
     41 C          65.9086   92.5500   15.1475 C.ar    1  UNL1       -0.0069
     42 C          65.9844   92.3558   16.6329 C.3     1  UNL1        0.0323
@<TRIPOS>UNITY_ATOM_ATTR
33 1
charge -1
@<TRIPOS>BOND
     1    19    20    1
     2    20    13    1
     3    13    14   ar
     4    14    15   ar
     5    15     1    1
     6     1     2   am
     7     2     3    2
     8     2     4   am
     9     4    21    1
    10    21    22   ar
    11    22    23   ar
    12    23    24   ar
    13    24    27    1
    14    27    28   ar
    15    28    29   ar
    16    29    30   ar
    17    30    32    1
    18    32    33   ar
    19    32    34   ar
    20    30    31   ar
    21    24    25   ar
    22    25    26   ar
    23     4     5   am
    24     5     6    2
    25     5     7    1
    26     7     8    1
    27     8     9    1
    28     9    10    1
    29    10    35    1
    30    35    36    1
    31    36    37   ar
    32    37    38   ar
    33    38    39   ar
    34    39    40   ar
    35    40    41   ar
    36    41    42    1
    37    10    11    1
    38    11    12    1
    39    15    16   ar
    40    16    17   ar
    41    17    18   ar
    42    18    13   ar
    43     7     1    1
    44    41    36   ar
    45    26    21   ar
    46    12     7    1
    47    31    27   ar
@<TRIPOS>MOLECULE
*****
 42 47 0 0 0
SMALL
GASTEIGER

@<TRIPOS>ATOM
      1 N          60.2846   88.8734   10.2842 N.am    1  UNL1       -0.2222
      2 C          59.9461   89.9605    9.3076 C.2     1  UNL1        0.3219
      3 O          59.4083   91.3180    9.6509 O.2     1  UNL1       -0.2512
      4 N          60.2401   89.4517    7.9274 N.am    1  UNL1       -0.1907
      5 C          60.7601   88.0502    8.0511 C.2     1  UNL1        0.2529
      6 O          61.1791   87.1620    6.9173 O.2     1  UNL1       -0.2724
      7 C          60.7877   87.6927    9.5077 C.3     1  UNL1        0.1391
      8 C          60.7588   87.4792   10.9921 C.3     1  UNL1        0.0449
      9 C          61.2101   86.1709   11.5705 C.3     1  UNL1        0.0746
     10 N          61.6903   85.0761   10.6645 N.3     1  UNL1       -0.2676
     11 C          61.7192   85.2897    9.1801 C.3     1  UNL1        0.0746
     12 C          61.2679   86.5980    8.6017 C.3     1  UNL1        0.0449
     13 C          61.1780   89.4349   14.1100 C.ar    1  UNL1        0.2293
     14 C          61.3181   89.3553   12.6186 C.ar    1  UNL1        0.0924
     15 C          60.1445   88.9530   11.7756 C.ar    1  UNL1        0.1453
     16 N          58.8309   88.6302   12.4238 N.ar    1  UNL1       -0.2084
     17 C          58.6908   88.7098   13.9150 C.ar    1  UNL1        0.2027
     18 N          59.8644   89.1121   14.7582 N.ar    1  UNL1       -0.1892
     19 C          63.5367   90.5038   14.3197 C.3     1  UNL1        0.2542
     20 O          62.3515   89.8373   14.9531 O.3     1  UNL1       -0.4560
     21 C          60.0477   90.2111    6.6483 C.ar    1  UNL1        0.0622
     22 C          61.2342   90.5710    5.8041 C.ar    1  UNL1        0.0154
     23 C          61.0418   91.3304    4.5249 C.ar    1  UNL1        0.0013
     24 C          59.6629   91.7299    4.0899 C.ar    1  UNL1        0.0006
     25 C          58.4764   91.3699    4.9342 C.ar    1  UNL1        0.0013
     26 C          58.6689   90.6105    6.2133 C.ar    1  UNL1        0.0154
     27 C          59.4705   92.4893    2.8107 C.ar    1  UNL1        0.0070
     28 C          60.0890   93.8126    2.4695 C.ar    1  UNL1        0.0355
     29 S          59.6267   94.1999    1.0961 S.2     1  UNL1       -0.0853
     30 C          58.7224   93.1160    0.5886 C.ar    1  UNL1        0.0434
     31 C          58.6260   92.0588    1.6483 C.ar    1  UNL1        0.0081
     32 C          58.0353   93.0932   -0.7446 C.2     1  UNL1        0.0789
     33 O          58.7984   93.4431   -1.9877 O.co2   1  UNL1       -0.5441
     34 O          56.5852   92.7206   -0.8347 O.co2   1  UNL1       -0.5441
     35 C          62.1417   83.7678   11.2429 C.3     1  UNL1        0.1183
     36 C          62.8464   83.7363   12.5667 C.ar    1  UNL1        0.0712
     37 N          63.6856   84.9025   12.9975 N.ar    1  UNL1       -0.2471
     38 C          64.3903   84.8709   14.3214 C.ar    1  UNL1        0.0985
     39 C          64.2558   83.6732   15.2143 C.ar    1  UNL1        0.0203
     40 C          63.4166   82.5070   14.7834 C.ar    1  UNL1       -0.0015
     41 C          62.7119   82.5385   13.4597 C.ar    1  UNL1       -0.0069
     42 C          61.8727   81.3723   13.0288 C.3     1  UNL1        0.0323
@<TRIPOS>UNITY_ATOM_ATTR
33 1
charge -1
@<TRIPOS>BOND
     1    19    20    1
     2    20    13    1
     3    13    14   ar
     4    14    15   ar
     5    15     1    1
     6     1     2   am
     7     2     3    2
     8     2     4   am
     9     4    21    1
    10    21    22   ar
    11    22    23   ar
    12    23    24   ar
    13    24    27    1
    14    27    28   ar
    15    28    29   ar
    16    29    30   ar
    17    30    32    1
    18    32    33   ar
    19    32    34   ar
    20    30    31   ar
    21    24    25   ar
    22    25    26   ar
    23     4     5   am
    24     5     6    2
    25     5     7    1
    26     7     8    1
    27     8     9    1
    28     9    10    1
    29    10    35    1
    30    35    36    1
    31    36    37   ar
    32    37    38   ar
    33    38    39   ar
    34    39    40   ar
    35    40    41   ar
    36    41    42    1
    37    10    11    1
    38    11    12    1
    39    15    16   ar
    40    16    17   ar
    41    17    18   ar
    42    18    13   ar
    43     7     1    1
    44    41    36   ar
    45    26    21   ar
    46    12     7    1
    47    31    27   ar
@<TRIPOS>MOLECULE
*****
 42 47 0 0 0
SMALL
GASTEIGER

@<TRIPOS>ATOM
      1 N          62.8446   89.1773   12.3812 N.am    1  UNL1       -0.2222
      2 C          62.3183   90.0878   11.3116 C.2     1  UNL1        0.3219
      3 O          62.3234   91.5874   11.3491 O.2     1  UNL1       -0.2512
      4 N          61.7860   89.2355   10.1978 N.am    1  UNL1       -0.1907
      5 C          61.9833   87.7983   10.5791 C.2     1  UNL1        0.2529
      6 O          61.5947   86.6063    9.7557 O.2     1  UNL1       -0.2724
      7 C          62.6376   87.7622   11.9285 C.3     1  UNL1        0.1391
      8 C          63.2887   87.8832   13.2744 C.3     1  UNL1        0.0449
      9 C          63.6691   86.6489   14.0371 C.3     1  UNL1        0.0746
     10 N          63.3984   85.2937   13.4540 N.3     1  UNL1       -0.2676
     11 C          62.7472   85.1727   12.1082 C.3     1  UNL1        0.0746
     12 C          62.3668   86.4070   11.3454 C.3     1  UNL1        0.0449
     13 C          65.4688   90.6312   14.9791 C.ar    1  UNL1        0.2293
     14 C          64.8450   90.2021   13.6843 C.ar    1  UNL1        0.0924
     15 C          63.4684   89.6064   13.6761 C.ar    1  UNL1        0.1453
     16 N          62.7155   89.4399   14.9627 N.ar    1  UNL1       -0.2084
     17 C          63.3392   89.8690   16.2576 C.ar    1  UNL1        0.2027
     18 N          64.7159   90.4647   16.2658 N.ar    1  UNL1       -0.1892
     19 C          67.3766   91.9046   13.7593 C.3     1  UNL1        0.2542
     20 O          66.8454   91.2269   14.9874 O.3     1  UNL1       -0.4560
     21 C          61.1654   89.7331    8.9262 C.ar    1  UNL1        0.0622
     22 C          61.9040   90.7143    8.0651 C.ar    1  UNL1        0.0154
     23 C          61.2834   91.2119    6.7934 C.ar    1  UNL1        0.0013
     24 C          59.9241   90.7283    6.3828 C.ar    1  UNL1        0.0006
     25 C          59.1855   89.7469    7.2440 C.ar    1  UNL1        0.0013
     26 C          59.8062   89.2494    8.5156 C.ar    1  UNL1        0.0154
     27 C          59.3035   91.2259    5.1111 C.ar    1  UNL1        0.0070
     28 C          57.8443   91.1823    4.7663 C.ar    1  UNL1        0.0355
     29 S          57.6720   91.7839    3.4030 S.2     1  UNL1       -0.0853
     30 C          59.0247   92.1992    2.9053 C.ar    1  UNL1        0.0434
     31 C          60.0330   91.8543    3.9610 C.ar    1  UNL1        0.0081
     32 C          59.3178   92.8458    1.5840 C.2     1  UNL1        0.0789
     33 O          59.5514   91.9975    0.3692 O.co2   1  UNL1       -0.5441
     34 O          59.3772   94.3408    1.4773 O.co2   1  UNL1       -0.5441
     35 C          63.7788   84.0594   14.2168 C.3     1  UNL1        0.1183
     36 C          63.1404   82.7440   13.8817 C.ar    1  UNL1        0.0712
     37 N          61.9683   82.2544   14.6794 N.ar    1  UNL1       -0.2471
     38 C          61.3299   80.9390   14.3443 C.ar    1  UNL1        0.0985
     39 C          61.8636   80.1133   13.2114 C.ar    1  UNL1        0.0203
     40 C          63.0357   80.6030   12.4137 C.ar    1  UNL1       -0.0015
     41 C          63.6741   81.9183   12.7488 C.ar    1  UNL1       -0.0069
     42 C          64.8462   82.4080   11.9510 C.3     1  UNL1        0.0323
@<TRIPOS>UNITY_ATOM_ATTR
33 1
charge -1
@<TRIPOS>BOND
     1    19    20    1
     2    20    13    1
     3    13    14   ar
     4    14    15   ar
     5    15     1    1
     6     1     2   am
     7     2     3    2
     8     2     4   am
     9     4    21    1
    10    21    22   ar
    11    22    23   ar
    12    23    24   ar
    13    24    27    1
    14    27    28   ar
    15    28    29   ar
    16    29    30   ar
    17    30    32    1
    18    32    33   ar
    19    32    34   ar
    20    30    31   ar
    21    24    25   ar
    22    25    26   ar
    23     4     5   am
    24     5     6    2
    25     5     7    1
    26     7     8    1
    27     8     9    1
    28     9    10    1
    29    10    35    1
    30    35    36    1
    31    36    37   ar
    32    37    38   ar
    33    38    39   ar
    34    39    40   ar
    35    40    41   ar
    36    41    42    1
    37    10    11    1
    38    11    12    1
    39    15    16   ar
    40    16    17   ar
    41    17    18   ar
    42    18    13   ar
    43     7     1    1
    44    41    36   ar
    45    26    21   ar
    46    12     7    1
    47    31    27   ar
