@<TRIPOS>MOLECULE
*****
 24 25 0 0 0
SMALL
GASTEIGER

@<TRIPOS>ATOM
      1 N          63.4651   94.7321   -0.3669 N.am    1  UNL1       -0.2657
      2 C          63.6668   93.6977    0.7005 C.2     1  UNL1        0.3071
      3 O          65.0141   93.0654    0.8870 O.2     1  UNL1       -0.2523
      4 N          62.5212   93.2956    1.5813 N.am    1  UNL1       -0.2634
      5 C          61.1739   93.9279    1.3948 C.3     1  UNL1        0.0993
      6 C          60.0282   93.5259    2.2757 C.3     1  UNL1        0.0442
      7 C          60.2300   92.4915    3.3431 C.2     1  UNL1       -0.0326
      8 C          59.0843   92.0894    4.2239 C.2     1  UNL1        0.0412
      9 C          61.5773   91.8592    3.5296 C.3     1  UNL1        0.0442
     10 C          62.7229   92.2612    2.6487 C.3     1  UNL1        0.0993
     11 C          62.1177   95.3645   -0.5534 C.3     1  UNL1        0.0769
     12 C          61.1302   94.7584   -1.5060 C.3     1  UNL1        0.0216
     13 C          61.7579   96.6029    0.2127 C.3     1  UNL1        0.0216
     14 C          65.4914   96.2832   -0.8550 C.3     1  UNL1        0.0233
     15 C          64.6107   95.1341   -1.2477 C.3     1  UNL1        0.0949
     16 C          59.2861   91.0550    5.2913 C.1     1  UNL1       -0.0583
     17 C          59.4877   90.0206    6.3587 C.1     1  UNL1       -0.0405
     18 C          59.6894   88.9862    7.4260 C.ar    1  UNL1        0.1224
     19 C          59.3505   87.5507    7.1530 C.ar    1  UNL1        0.0276
     20 C          59.5522   86.5163    8.2203 C.ar    1  UNL1        0.0034
     21 C          60.0929   86.9173    9.5608 C.ar    1  UNL1        0.0148
     22 C          60.4318   88.3528    9.8339 C.ar    1  UNL1        0.0600
     23 C          60.9724   88.7538   11.1744 C.3     1  UNL1        0.0521
     24 N          60.2301   89.3872    8.7665 N.ar    1  UNL1       -0.2414
@<TRIPOS>BOND
     1    14    15    1
     2    15     1    1
     3     1     2   am
     4     2     3    2
     5     2     4   am
     6     4     5    1
     7     5     6    1
     8     6     7    1
     9     7     8    2
    10     8    16    1
    11    16    17    3
    12    17    18    1
    13    18    19   ar
    14    19    20   ar
    15    20    21   ar
    16    21    22   ar
    17    22    23    1
    18    22    24   ar
    19     7     9    1
    20     9    10    1
    21     1    11    1
    22    11    12    1
    23    11    13    1
    24    10     4    1
    25    24    18   ar
@<TRIPOS>MOLECULE
*****
 24 25 0 0 0
SMALL
GASTEIGER

@<TRIPOS>ATOM
      1 N          61.9891   94.2847    0.2822 N.am    1  UNL1       -0.2657
      2 C          62.5425   93.3694    1.3338 C.2     1  UNL1        0.3071
      3 O          64.0093   93.0567    1.3594 O.2     1  UNL1       -0.2523
      4 N          61.6291   92.7669    2.3598 N.am    1  UNL1       -0.2634
      5 C          60.1623   93.0796    2.3342 C.3     1  UNL1        0.0993
      6 C          59.2490   92.4771    3.3602 C.3     1  UNL1        0.0442
      7 C          59.8024   91.5618    4.4118 C.2     1  UNL1       -0.0326
      8 C          58.8890   90.9592    5.4378 C.2     1  UNL1        0.0412
      9 C          61.2692   91.2490    4.4374 C.3     1  UNL1        0.0442
     10 C          62.1825   91.8516    3.4114 C.3     1  UNL1        0.0993
     11 C          60.5222   94.5975    0.2565 C.3     1  UNL1        0.0769
     12 C          59.5913   93.7610   -0.5702 C.3     1  UNL1        0.0216
     13 C          59.9863   95.7469    1.0576 C.3     1  UNL1        0.0216
     14 C          62.8511   96.3607   -1.0207 C.3     1  UNL1        0.0233
     15 C          62.9024   94.8873   -0.7438 C.3     1  UNL1        0.0949
     16 C          59.4424   90.0439    6.4894 C.1     1  UNL1       -0.0583
     17 C          59.9959   89.1286    7.5410 C.1     1  UNL1       -0.0405
     18 C          60.5493   88.2133    8.5927 C.ar    1  UNL1        0.1224
     19 C          60.3330   86.7327    8.4876 C.ar    1  UNL1        0.0276
     20 C          60.8865   85.8174    9.5392 C.ar    1  UNL1        0.0034
     21 C          61.6562   86.3826   10.6959 C.ar    1  UNL1        0.0148
     22 C          61.8725   87.8632   10.8010 C.ar    1  UNL1        0.0600
     23 C          62.6422   88.4285   11.9577 C.3     1  UNL1        0.0521
     24 N          61.3191   88.7786    9.7494 N.ar    1  UNL1       -0.2414
@<TRIPOS>BOND
     1    14    15    1
     2    15     1    1
     3     1     2   am
     4     2     3    2
     5     2     4   am
     6     4     5    1
     7     5     6    1
     8     6     7    1
     9     7     8    2
    10     8    16    1
    11    16    17    3
    12    17    18    1
    13    18    19   ar
    14    19    20   ar
    15    20    21   ar
    16    21    22   ar
    17    22    23    1
    18    22    24   ar
    19     7     9    1
    20     9    10    1
    21     1    11    1
    22    11    12    1
    23    11    13    1
    24    10     4    1
    25    24    18   ar
@<TRIPOS>MOLECULE
*****
 24 25 0 0 0
SMALL
GASTEIGER

@<TRIPOS>ATOM
      1 N          63.9213   85.6973   14.0393 N.am    1  UNL1       -0.2657
      2 C          63.5438   86.9114   13.2435 C.2     1  UNL1        0.3071
      3 O          63.9723   88.2731   13.7040 O.2     1  UNL1       -0.2523
      4 N          62.7377   86.7639   11.9871 N.am    1  UNL1       -0.2634
      5 C          62.3091   85.4022   11.5266 C.3     1  UNL1        0.0993
      6 C          61.5031   85.2546   10.2702 C.3     1  UNL1        0.0442
      7 C          61.1256   86.4687    9.4744 C.2     1  UNL1       -0.0326
      8 C          60.3195   86.3212    8.2180 C.2     1  UNL1        0.0412
      9 C          61.5541   87.8304    9.9349 C.3     1  UNL1        0.0442
     10 C          62.3602   87.9780   11.1913 C.3     1  UNL1        0.0993
     11 C          63.4927   84.3356   13.5788 C.3     1  UNL1        0.0769
     12 C          62.2689   83.6964   14.1649 C.3     1  UNL1        0.0216
     13 C          64.2881   83.6131   12.5322 C.3     1  UNL1        0.0216
     14 C          64.0349   86.0166   16.6152 C.3     1  UNL1        0.0233
     15 C          64.7273   85.8449   15.2957 C.3     1  UNL1        0.0949
     16 C          59.9420   87.5353    7.4222 C.1     1  UNL1       -0.0583
     17 C          59.5644   88.7494    6.6263 C.1     1  UNL1       -0.0405
     18 C          59.1869   89.9635    5.8304 C.ar    1  UNL1        0.1224
     19 C          57.7713   90.4594    5.8449 C.ar    1  UNL1        0.0276
     20 C          57.3938   91.6735    5.0490 C.ar    1  UNL1        0.0034
     21 C          58.4318   92.3918    4.2387 C.ar    1  UNL1        0.0148
     22 C          59.8474   91.8959    4.2242 C.ar    1  UNL1        0.0600
     23 C          60.8854   92.6141    3.4139 C.3     1  UNL1        0.0521
     24 N          60.2250   90.6817    5.0201 N.ar    1  UNL1       -0.2414
@<TRIPOS>BOND
     1    14    15    1
     2    15     1    1
     3     1     2   am
     4     2     3    2
     5     2     4   am
     6     4     5    1
     7     5     6    1
     8     6     7    1
     9     7     8    2
    10     8    16    1
    11    16    17    3
    12    17    18    1
    13    18    19   ar
    14    19    20   ar
    15    20    21   ar
    16    21    22   ar
    17    22    23    1
    18    22    24   ar
    19     7     9    1
    20     9    10    1
    21     1    11    1
    22    11    12    1
    23    11    13    1
    24    10     4    1
    25    24    18   ar
@<TRIPOS>MOLECULE
*****
 24 25 0 0 0
SMALL
GASTEIGER

@<TRIPOS>ATOM
      1 N          62.7936   80.5663   12.1156 N.am    1  UNL1       -0.2657
      2 C          63.2752   81.9072   11.6465 C.2     1  UNL1        0.3071
      3 O          63.6662   82.1037   10.2118 O.2     1  UNL1       -0.2523
      4 N          63.3659   83.0514   12.6121 N.am    1  UNL1       -0.2634
      5 C          62.9749   82.8549   14.0468 C.3     1  UNL1        0.0993
      6 C          63.0656   83.9992   15.0125 C.3     1  UNL1        0.0442
      7 C          63.5472   85.3400   14.5434 C.2     1  UNL1       -0.0326
      8 C          63.6379   86.4843   15.5090 C.2     1  UNL1        0.0412
      9 C          63.9382   85.5366   13.1086 C.3     1  UNL1        0.0442
     10 C          63.8476   84.3923   12.1430 C.3     1  UNL1        0.0993
     11 C          62.4026   80.3697   13.5504 C.3     1  UNL1        0.0769
     12 C          60.9743   80.5531   13.9704 C.3     1  UNL1        0.0216
     13 C          63.4399   79.9897   14.5651 C.3     1  UNL1        0.0216
     14 C          62.6984   79.6854    9.6733 C.3     1  UNL1        0.0233
     15 C          62.7029   79.4220   11.1500 C.3     1  UNL1        0.0949
     16 C          64.1196   87.8251   15.0399 C.1     1  UNL1       -0.0583
     17 C          64.6013   89.1660   14.5708 C.1     1  UNL1       -0.0405
     18 C          65.0829   90.5069   14.1017 C.ar    1  UNL1        0.1224
     19 C          64.5604   91.0853   12.8200 C.ar    1  UNL1        0.0276
     20 C          65.0420   92.4261   12.3509 C.ar    1  UNL1        0.0034
     21 C          66.0462   93.1886   13.1634 C.ar    1  UNL1        0.0148
     22 C          66.5688   92.6103   14.4449 C.ar    1  UNL1        0.0600
     23 C          67.5730   93.3729   15.2574 C.3     1  UNL1        0.0521
     24 N          66.0872   91.2694   14.9141 N.ar    1  UNL1       -0.2414
@<TRIPOS>BOND
     1    14    15    1
     2    15     1    1
     3     1     2   am
     4     2     3    2
     5     2     4   am
     6     4     5    1
     7     5     6    1
     8     6     7    1
     9     7     8    2
    10     8    16    1
    11    16    17    3
    12    17    18    1
    13    18    19   ar
    14    19    20   ar
    15    20    21   ar
    16    21    22   ar
    17    22    23    1
    18    22    24   ar
    19     7     9    1
    20     9    10    1
    21     1    11    1
    22    11    12    1
    23    11    13    1
    24    10     4    1
    25    24    18   ar
@<TRIPOS>MOLECULE
*****
 24 25 0 0 0
SMALL
GASTEIGER

@<TRIPOS>ATOM
      1 N          44.4129   79.4373   19.4290 N.am    1  UNL1       -0.2657
      2 C          44.3969   78.5729   18.2033 C.2     1  UNL1        0.3071
      3 O          44.0740   79.1727   16.8669 O.2     1  UNL1       -0.2523
      4 N          44.7037   77.1088   18.3139 N.am    1  UNL1       -0.2634
      5 C          45.0266   76.5091   19.6503 C.3     1  UNL1        0.0993
      6 C          45.3334   75.0450   19.7609 C.3     1  UNL1        0.0442
      7 C          45.3174   74.1806   18.5351 C.2     1  UNL1       -0.0326
      8 C          45.6242   72.7165   18.6458 C.2     1  UNL1        0.0412
      9 C          44.9945   74.7803   17.1987 C.3     1  UNL1        0.0442
     10 C          44.6877   76.2445   17.0881 C.3     1  UNL1        0.0993
     11 C          44.7358   78.8376   20.7655 C.3     1  UNL1        0.0769
     12 C          46.1588   78.7756   21.2357 C.3     1  UNL1        0.0216
     13 C          43.6356   78.2998   21.6318 C.3     1  UNL1        0.0216
     14 C          45.1785   81.9149   19.5886 C.3     1  UNL1        0.0233
     15 C          44.1061   80.9014   19.3184 C.3     1  UNL1        0.0949
     16 C          45.6081   71.8521   17.4200 C.1     1  UNL1       -0.0583
     17 C          45.5920   70.9877   16.1942 C.1     1  UNL1       -0.0405
     18 C          45.5760   70.1233   14.9684 C.ar    1  UNL1        0.1224
     19 C          46.5065   68.9513   14.8648 C.ar    1  UNL1        0.0276
     20 C          46.4905   68.0870   13.6391 C.ar    1  UNL1        0.0034
     21 C          45.5439   68.3945   12.5168 C.ar    1  UNL1        0.0148
     22 C          44.6134   69.5664   12.6203 C.ar    1  UNL1        0.0600
     23 C          43.6669   69.8740   11.4980 C.3     1  UNL1        0.0521
     24 N          44.6295   70.4309   13.8461 N.ar    1  UNL1       -0.2414
@<TRIPOS>BOND
     1    14    15    1
     2    15     1    1
     3     1     2   am
     4     2     3    2
     5     2     4   am
     6     4     5    1
     7     5     6    1
     8     6     7    1
     9     7     8    2
    10     8    16    1
    11    16    17    3
    12    17    18    1
    13    18    19   ar
    14    19    20   ar
    15    20    21   ar
    16    21    22   ar
    17    22    23    1
    18    22    24   ar
    19     7     9    1
    20     9    10    1
    21     1    11    1
    22    11    12    1
    23    11    13    1
    24    10     4    1
    25    24    18   ar
@<TRIPOS>MOLECULE
*****
 24 25 0 0 0
SMALL
GASTEIGER

@<TRIPOS>ATOM
      1 N          71.6378   71.8981   15.1951 N.am    1  UNL1       -0.2657
      2 C          71.5068   72.6342   13.8947 C.2     1  UNL1        0.3071
      3 O          71.1211   71.8930   12.6490 O.2     1  UNL1       -0.2523
      4 N          71.7616   74.1114   13.8400 N.am    1  UNL1       -0.2634
      5 C          72.1473   74.8525   15.0857 C.3     1  UNL1        0.0993
      6 C          72.4020   76.3297   15.0310 C.3     1  UNL1        0.0442
      7 C          72.2711   77.0658   13.7306 C.2     1  UNL1       -0.0326
      8 C          72.5259   78.5429   13.6759 C.2     1  UNL1        0.0412
      9 C          71.8854   76.3246   12.4849 C.3     1  UNL1        0.0442
     10 C          71.6306   74.8474   12.5396 C.3     1  UNL1        0.0993
     11 C          72.0235   72.6393   16.4409 C.3     1  UNL1        0.0769
     12 C          70.9623   73.2311   17.3205 C.3     1  UNL1        0.0216
     13 C          73.4704   72.7887   16.8071 C.3     1  UNL1        0.0216
     14 C          71.4449   69.6973   16.5623 C.3     1  UNL1        0.0233
     15 C          71.3830   70.4209   15.2498 C.3     1  UNL1        0.0949
     16 C          72.3949   79.2790   12.3756 C.1     1  UNL1       -0.0583
     17 C          72.2639   80.0150   11.0751 C.1     1  UNL1       -0.0405
     18 C          72.1330   80.7510    9.7747 C.ar    1  UNL1        0.1224
     19 C          72.2640   82.2450    9.7419 C.ar    1  UNL1        0.0276
     20 C          72.1330   82.9810    8.4415 C.ar    1  UNL1        0.0034
     21 C          71.8711   82.2231    7.1738 C.ar    1  UNL1        0.0148
     22 C          71.7400   80.7293    7.2065 C.ar    1  UNL1        0.0600
     23 C          71.4781   79.9714    5.9388 C.3     1  UNL1        0.0521
     24 N          71.8710   79.9931    8.5070 N.ar    1  UNL1       -0.2414
@<TRIPOS>BOND
     1    14    15    1
     2    15     1    1
     3     1     2   am
     4     2     3    2
     5     2     4   am
     6     4     5    1
     7     5     6    1
     8     6     7    1
     9     7     8    2
    10     8    16    1
    11    16    17    3
    12    17    18    1
    13    18    19   ar
    14    19    20   ar
    15    20    21   ar
    16    21    22   ar
    17    22    23    1
    18    22    24   ar
    19     7     9    1
    20     9    10    1
    21     1    11    1
    22    11    12    1
    23    11    13    1
    24    10     4    1
    25    24    18   ar
@<TRIPOS>MOLECULE
*****
 24 25 0 0 0
SMALL
GASTEIGER

@<TRIPOS>ATOM
      1 N          67.2878   93.6056   14.9088 N.am    1  UNL1       -0.2657
      2 C          66.4813   93.4067   13.6598 C.2     1  UNL1        0.3071
      3 O          66.5145   94.4402   12.5732 O.2     1  UNL1       -0.2523
      4 N          65.6415   92.1744   13.4975 N.am    1  UNL1       -0.2634
      5 C          65.6083   91.1410   14.5841 C.3     1  UNL1        0.0993
      6 C          64.7686   89.9087   14.4218 C.3     1  UNL1        0.0442
      7 C          63.9621   89.7099   13.1729 C.2     1  UNL1       -0.0326
      8 C          63.1223   88.4776   13.0105 C.2     1  UNL1        0.0412
      9 C          63.9953   90.7433   12.0862 C.3     1  UNL1        0.0442
     10 C          64.8350   91.9756   12.2485 C.3     1  UNL1        0.0993
     11 C          67.2546   92.5721   15.9955 C.3     1  UNL1        0.0769
     12 C          68.4191   91.6460   16.1856 C.3     1  UNL1        0.0216
     13 C          66.0568   92.4648   16.8921 C.3     1  UNL1        0.0216
     14 C          69.2519   94.8538   16.0639 C.3     1  UNL1        0.0233
     15 C          68.1275   94.8378   15.0711 C.3     1  UNL1        0.0949
     16 C          62.3158   88.2788   11.7616 C.1     1  UNL1       -0.0583
     17 C          61.5093   88.0799   10.5126 C.1     1  UNL1       -0.0405
     18 C          60.7028   87.8811    9.2636 C.ar    1  UNL1        0.1224
     19 C          60.2919   86.4995    8.8481 C.ar    1  UNL1        0.0276
     20 C          59.4854   86.3007    7.5991 C.ar    1  UNL1        0.0034
     21 C          59.0897   87.4833    6.7656 C.ar    1  UNL1        0.0148
     22 C          59.5005   88.8648    7.1810 C.ar    1  UNL1        0.0600
     23 C          59.1049   90.0475    6.3475 C.3     1  UNL1        0.0521
     24 N          60.3071   89.0637    8.4301 N.ar    1  UNL1       -0.2414
@<TRIPOS>BOND
     1    14    15    1
     2    15     1    1
     3     1     2   am
     4     2     3    2
     5     2     4   am
     6     4     5    1
     7     5     6    1
     8     6     7    1
     9     7     8    2
    10     8    16    1
    11    16    17    3
    12    17    18    1
    13    18    19   ar
    14    19    20   ar
    15    20    21   ar
    16    21    22   ar
    17    22    23    1
    18    22    24   ar
    19     7     9    1
    20     9    10    1
    21     1    11    1
    22    11    12    1
    23    11    13    1
    24    10     4    1
    25    24    18   ar
@<TRIPOS>MOLECULE
*****
 24 25 0 0 0
SMALL
GASTEIGER

@<TRIPOS>ATOM
      1 N          46.1820   79.7991   19.2030 N.am    1  UNL1       -0.2657
      2 C          46.7369   78.4409   18.8907 C.2     1  UNL1        0.3071
      3 O          48.0671   78.0282   19.4474 O.2     1  UNL1       -0.2523
      4 N          45.9615   77.4955   18.0218 N.am    1  UNL1       -0.2634
      5 C          44.6312   77.9083   17.4651 C.3     1  UNL1        0.0993
      6 C          43.8558   76.9629   16.5962 C.3     1  UNL1        0.0442
      7 C          44.4107   75.6048   16.2839 C.2     1  UNL1       -0.0326
      8 C          43.6354   74.6594   15.4150 C.2     1  UNL1        0.0412
      9 C          45.7410   75.1920   16.8406 C.3     1  UNL1        0.0442
     10 C          46.5164   76.1374   17.7096 C.3     1  UNL1        0.0993
     11 C          44.8516   80.2119   18.6462 C.3     1  UNL1        0.0769
     12 C          43.6345   80.1970   19.5228 C.3     1  UNL1        0.0216
     13 C          44.7385   80.6395   17.2130 C.3     1  UNL1        0.0216
     14 C          46.9715   82.2112   19.7581 C.3     1  UNL1        0.0233
     15 C          46.9573   80.7444   20.0719 C.3     1  UNL1        0.0949
     16 C          44.1902   73.3013   15.1028 C.1     1  UNL1       -0.0583
     17 C          44.7452   71.9431   14.7905 C.1     1  UNL1       -0.0405
     18 C          45.3001   70.5849   14.4783 C.ar    1  UNL1        0.1224
     19 C          46.3163   69.9623   15.3892 C.ar    1  UNL1        0.0276
     20 C          46.8712   68.6042   15.0770 C.ar    1  UNL1        0.0034
     21 C          46.4099   67.8686   13.8538 C.ar    1  UNL1        0.0148
     22 C          45.3938   68.4911   12.9429 C.ar    1  UNL1        0.0600
     23 C          44.9325   67.7555   11.7197 C.3     1  UNL1        0.0521
     24 N          44.8388   69.8493   13.2551 N.ar    1  UNL1       -0.2414
@<TRIPOS>BOND
     1    14    15    1
     2    15     1    1
     3     1     2   am
     4     2     3    2
     5     2     4   am
     6     4     5    1
     7     5     6    1
     8     6     7    1
     9     7     8    2
    10     8    16    1
    11    16    17    3
    12    17    18    1
    13    18    19   ar
    14    19    20   ar
    15    20    21   ar
    16    21    22   ar
    17    22    23    1
    18    22    24   ar
    19     7     9    1
    20     9    10    1
    21     1    11    1
    22    11    12    1
    23    11    13    1
    24    10     4    1
    25    24    18   ar
@<TRIPOS>MOLECULE
*****
 24 25 0 0 0
SMALL
GASTEIGER

@<TRIPOS>ATOM
      1 N          65.1062   90.6856   14.4578 N.am    1  UNL1       -0.2657
      2 C          64.8167   91.3198   13.1297 C.2     1  UNL1        0.3071
      3 O          65.6098   92.5103   12.6783 O.2     1  UNL1       -0.2523
      4 N          63.7341   90.7636   12.2529 N.am    1  UNL1       -0.2634
      5 C          62.9411   89.5731   12.7043 C.3     1  UNL1        0.0993
      6 C          61.8585   89.0169   11.8276 C.3     1  UNL1        0.0442
      7 C          61.5691   89.6511   10.4995 C.2     1  UNL1       -0.0326
      8 C          60.4865   89.0948    9.6227 C.2     1  UNL1        0.0412
      9 C          62.3621   90.8416   10.0481 C.3     1  UNL1        0.0442
     10 C          63.4447   91.3978   10.9248 C.3     1  UNL1        0.0993
     11 C          64.3131   89.4951   14.9092 C.3     1  UNL1        0.0769
     12 C          63.1726   89.6730   15.8671 C.3     1  UNL1        0.0216
     13 C          64.6606   88.1266   14.4027 C.3     1  UNL1        0.0216
     14 C          65.9602   92.5169   16.0909 C.3     1  UNL1        0.0233
     15 C          66.1887   91.2419   15.3345 C.3     1  UNL1        0.0949
     16 C          60.1970   89.7291    8.2946 C.1     1  UNL1       -0.0583
     17 C          59.9076   90.3633    6.9664 C.1     1  UNL1       -0.0405
     18 C          59.6181   90.9976    5.6383 C.ar    1  UNL1        0.1224
     19 C          58.1987   91.2092    5.2017 C.ar    1  UNL1        0.0276
     20 C          57.9092   91.8434    3.8736 C.ar    1  UNL1        0.0034
     21 C          59.0390   92.2660    2.9820 C.ar    1  UNL1        0.0148
     22 C          60.4584   92.0545    3.4186 C.ar    1  UNL1        0.0600
     23 C          61.5882   92.4771    2.5271 C.3     1  UNL1        0.0521
     24 N          60.7479   91.4202    4.7468 N.ar    1  UNL1       -0.2414
@<TRIPOS>BOND
     1    14    15    1
     2    15     1    1
     3     1     2   am
     4     2     3    2
     5     2     4   am
     6     4     5    1
     7     5     6    1
     8     6     7    1
     9     7     8    2
    10     8    16    1
    11    16    17    3
    12    17    18    1
    13    18    19   ar
    14    19    20   ar
    15    20    21   ar
    16    21    22   ar
    17    22    23    1
    18    22    24   ar
    19     7     9    1
    20     9    10    1
    21     1    11    1
    22    11    12    1
    23    11    13    1
    24    10     4    1
    25    24    18   ar
