@<TRIPOS>MOLECULE
*****
 32 36 0 0 0
SMALL
GASTEIGER

@<TRIPOS>ATOM
      1 N          61.6533   87.0473   10.6950 N.3     1  UNL1       -0.2692
      2 C          62.4303   85.7822   10.4813 C.3     1  UNL1        0.0978
      3 C          62.8920   85.4091    9.1038 C.3     1  UNL1        0.0224
      4 C          63.6690   84.1440    8.8902 C.3     1  UNL1        0.0065
      5 C          63.9843   83.2519   10.0540 C.3     1  UNL1        0.0277
      6 C          63.5226   83.6249   11.4316 C.ar    1  UNL1       -0.0073
      7 C          63.8379   82.7328   12.5955 C.ar    1  UNL1       -0.0015
      8 C          63.3762   83.1058   13.9731 C.ar    1  UNL1        0.0203
      9 C          62.5992   84.3709   14.1867 C.ar    1  UNL1        0.0985
     10 N          62.2839   85.2631   13.0228 N.ar    1  UNL1       -0.2471
     11 C          62.7456   84.8900   11.6452 C.ar    1  UNL1        0.0695
     12 N          58.5343   89.4531    6.1690 N.3     1  UNL1       -0.3222
     13 C          59.3141   88.8516    7.3005 C.3     1  UNL1        0.0509
     14 C          60.1798   89.7231    8.1614 C.3     1  UNL1        0.0169
     15 C          60.9596   89.1217    9.2928 C.3     1  UNL1        0.0173
     16 C          60.8735   87.6487    9.5635 C.3     1  UNL1        0.0579
     17 C          60.0078   86.7773    8.7027 C.3     1  UNL1        0.0173
     18 C          59.2280   87.3788    7.5711 C.3     1  UNL1        0.0169
     19 H          58.7099   90.4571    6.1310 H       1  UNL1        0.1188
     20 H          57.5387   89.2873    6.3163 H       1  UNL1        0.1188
     21 C          61.6560   87.7111   12.0401 C.3     1  UNL1        0.0885
     22 C          62.6524   88.7911   12.3415 C.3     1  UNL1        0.0748
     23 C          62.9521   89.8427   11.3148 C.3     1  UNL1        0.0432
     24 C          63.9485   90.9228   11.6163 C.ar    1  UNL1       -0.0234
     25 C          64.2483   91.9744   10.5896 C.ar    1  UNL1       -0.0045
     26 C          65.2446   93.0544   10.8910 C.ar    1  UNL1       -0.0003
     27 C          65.9412   93.0827   12.2192 C.ar    1  UNL1       -0.0003
     28 C          65.6415   92.0311   13.2458 C.ar    1  UNL1       -0.0032
     29 C          64.6451   90.9511   12.9444 C.ar    1  UNL1       -0.0103
     30 C          64.3453   89.8994   13.9711 C.3     1  UNL1        0.0953
     31 N          63.3490   88.8194   13.6697 N.3     1  UNL1       -0.2934
     32 H          62.6219   88.8824   14.3822 H       1  UNL1        0.1236
@<TRIPOS>BOND
     1    13    12    1
     2    13    14    1
     3    14    15    1
     4    15    16    1
     5    16     1    1
     6     1    21    1
     7    22    21    1
     8    22    23    1
     9    23    24    1
    10    24    25   ar
    11    25    26   ar
    12    26    27   ar
    13    27    28   ar
    14    28    29   ar
    15    29    30    1
    16    30    31    1
    17     2     1    1
    18     2     3    1
    19     3     4    1
    20     4     5    1
    21     5     6    1
    22     6     7   ar
    23     7     8   ar
    24     8     9   ar
    25     9    10   ar
    26    10    11   ar
    27    16    17    1
    28    17    18    1
    29    18    13    1
    30    31    22    1
    31    11     2    1
    32    29    24   ar
    33    11     6   ar
    34    12    19    1
    35    12    20    1
    36    31    32    1
@<TRIPOS>MOLECULE
*****
 32 36 0 0 0
SMALL
GASTEIGER

@<TRIPOS>ATOM
      1 N          61.7959   87.0895   10.6906 N.3     1  UNL1       -0.2692
      2 C          62.5167   85.7877   10.5018 C.3     1  UNL1        0.0978
      3 C          62.9766   85.3765    9.1346 C.3     1  UNL1        0.0224
      4 C          63.6974   84.0746    8.9457 C.3     1  UNL1        0.0065
      5 C          63.9583   83.1840   10.1241 C.3     1  UNL1        0.0277
      6 C          63.4985   83.5953   11.4914 C.ar    1  UNL1       -0.0073
      7 C          63.7595   82.7046   12.6699 C.ar    1  UNL1       -0.0015
      8 C          63.2996   83.1159   14.0371 C.ar    1  UNL1        0.0203
      9 C          62.5788   84.4177   14.2259 C.ar    1  UNL1        0.0985
     10 N          62.3178   85.3083   13.0475 N.ar    1  UNL1       -0.2471
     11 C          62.7777   84.8971   11.6802 C.ar    1  UNL1        0.0695
     12 N          58.3864   89.2988    6.2755 N.3     1  UNL1       -0.3222
     13 C          59.2388   88.7465    7.3792 C.3     1  UNL1        0.0509
     14 C          59.2244   87.2757    7.6736 C.3     1  UNL1        0.0169
     15 C          60.0767   86.7234    8.7774 C.3     1  UNL1        0.0173
     16 C          60.9435   87.6419    9.5869 C.3     1  UNL1        0.0579
     17 C          60.9579   89.1126    9.2925 C.3     1  UNL1        0.0173
     18 C          60.1055   89.6649    8.1886 C.3     1  UNL1        0.0169
     19 H          57.8670   88.5397    5.8346 H       1  UNL1        0.1188
     20 H          58.9807   89.7522    5.5814 H       1  UNL1        0.1188
     21 C          61.9274   87.8390   11.9833 C.3     1  UNL1        0.0885
     22 C          62.8098   89.0496   12.0619 C.3     1  UNL1        0.0748
     23 C          63.6502   89.2871   13.2814 C.3     1  UNL1        0.0432
     24 C          64.5326   90.4977   13.3600 C.ar    1  UNL1       -0.0234
     25 C          65.3731   90.7352   14.5795 C.ar    1  UNL1       -0.0045
     26 C          66.2553   91.9457   14.6581 C.ar    1  UNL1       -0.0003
     27 C          66.2972   92.9186   13.5172 C.ar    1  UNL1       -0.0003
     28 C          65.4567   92.6811   12.2977 C.ar    1  UNL1       -0.0032
     29 C          64.5744   91.4706   12.2191 C.ar    1  UNL1       -0.0103
     30 C          63.7339   91.2330   10.9996 C.3     1  UNL1        0.0953
     31 N          62.8516   90.0225   10.9210 N.3     1  UNL1       -0.2934
     32 H          63.1446   89.4976   10.0970 H       1  UNL1        0.1236
@<TRIPOS>BOND
     1    13    12    1
     2    13    14    1
     3    14    15    1
     4    15    16    1
     5    16     1    1
     6     1    21    1
     7    22    21    1
     8    22    23    1
     9    23    24    1
    10    24    25   ar
    11    25    26   ar
    12    26    27   ar
    13    27    28   ar
    14    28    29   ar
    15    29    30    1
    16    30    31    1
    17     2     1    1
    18     2     3    1
    19     3     4    1
    20     4     5    1
    21     5     6    1
    22     6     7   ar
    23     7     8   ar
    24     8     9   ar
    25     9    10   ar
    26    10    11   ar
    27    16    17    1
    28    17    18    1
    29    18    13    1
    30    31    22    1
    31    11     2    1
    32    29    24   ar
    33    11     6   ar
    34    12    19    1
    35    12    20    1
    36    31    32    1
@<TRIPOS>MOLECULE
*****
 32 36 0 0 0
SMALL
GASTEIGER

@<TRIPOS>ATOM
      1 N          64.0038   87.8424   13.9350 N.3     1  UNL1       -0.2692
      2 C          63.2262   87.8338   12.6523 C.3     1  UNL1        0.0978
      3 C          62.5106   86.5893   12.2175 C.3     1  UNL1        0.0224
      4 C          61.7330   86.5806   10.9348 C.3     1  UNL1        0.0065
      5 C          61.6709   87.8164   10.0870 C.3     1  UNL1        0.0277
      6 C          62.3866   89.0609   10.5218 C.ar    1  UNL1       -0.0073
      7 C          62.3246   90.2968    9.6740 C.ar    1  UNL1       -0.0015
      8 C          63.0402   91.5413   10.1088 C.ar    1  UNL1        0.0203
      9 C          63.8178   91.5500   11.3914 C.ar    1  UNL1        0.0985
     10 N          63.8798   90.3142   12.2393 N.ar    1  UNL1       -0.2471
     11 C          63.1642   89.0696   11.8045 C.ar    1  UNL1        0.0695
     12 N          64.4815   92.9051   17.1195 N.3     1  UNL1       -0.3222
     13 C          64.3621   91.6394   16.3234 C.3     1  UNL1        0.0509
     14 C          65.3308   91.3574   15.2134 C.3     1  UNL1        0.0169
     15 C          65.2114   90.0917   14.4173 C.3     1  UNL1        0.0173
     16 C          64.1232   89.1081   14.7311 C.3     1  UNL1        0.0579
     17 C          63.1545   89.3902   15.8411 C.3     1  UNL1        0.0173
     18 C          63.2739   90.6559   16.6372 C.3     1  UNL1        0.0169
     19 H          65.2699   93.4516   16.7730 H       1  UNL1        0.1188
     20 H          64.6323   92.6758   18.1019 H       1  UNL1        0.1188
     21 C          64.6620   86.5855   14.4215 C.3     1  UNL1        0.0885
     22 C          63.9039   85.2911   14.4154 C.3     1  UNL1        0.0748
     23 C          64.2168   84.2436   13.3884 C.3     1  UNL1        0.0432
     24 C          63.4587   82.9492   13.3823 C.ar    1  UNL1       -0.0234
     25 C          63.7715   81.9017   12.3553 C.ar    1  UNL1       -0.0045
     26 C          63.0134   80.6074   12.3492 C.ar    1  UNL1       -0.0003
     27 C          61.9425   80.3606   13.3701 C.ar    1  UNL1       -0.0003
     28 C          61.6297   81.4081   14.3971 C.ar    1  UNL1       -0.0032
     29 C          62.3878   82.7024   14.4032 C.ar    1  UNL1       -0.0103
     30 C          62.0750   83.7500   15.4303 C.3     1  UNL1        0.0953
     31 N          62.8330   85.0443   15.4363 N.3     1  UNL1       -0.2934
     32 H          63.2756   85.1220   16.3520 H       1  UNL1        0.1236
@<TRIPOS>BOND
     1    13    12    1
     2    13    14    1
     3    14    15    1
     4    15    16    1
     5    16     1    1
     6     1    21    1
     7    22    21    1
     8    22    23    1
     9    23    24    1
    10    24    25   ar
    11    25    26   ar
    12    26    27   ar
    13    27    28   ar
    14    28    29   ar
    15    29    30    1
    16    30    31    1
    17     2     1    1
    18     2     3    1
    19     3     4    1
    20     4     5    1
    21     5     6    1
    22     6     7   ar
    23     7     8   ar
    24     8     9   ar
    25     9    10   ar
    26    10    11   ar
    27    16    17    1
    28    17    18    1
    29    18    13    1
    30    31    22    1
    31    11     2    1
    32    29    24   ar
    33    11     6   ar
    34    12    19    1
    35    12    20    1
    36    31    32    1
@<TRIPOS>MOLECULE
*****
 32 36 0 0 0
SMALL
GASTEIGER

@<TRIPOS>ATOM
      1 N          62.2971   86.4646   11.6152 N.3     1  UNL1       -0.2692
      2 C          62.2179   86.0028   10.1903 C.3     1  UNL1        0.0978
      3 C          63.2512   85.0600    9.6488 C.3     1  UNL1        0.0224
      4 C          63.1719   84.5982    8.2239 C.3     1  UNL1        0.0065
      5 C          62.0593   85.0793    7.3404 C.3     1  UNL1        0.0277
      6 C          61.0260   86.0221    7.8818 C.ar    1  UNL1       -0.0073
      7 C          59.9133   86.5032    6.9983 C.ar    1  UNL1       -0.0015
      8 C          58.8799   87.4460    7.5398 C.ar    1  UNL1        0.0203
      9 C          58.9592   87.9078    8.9647 C.ar    1  UNL1        0.0985
     10 N          60.0718   87.4268    9.8482 N.ar    1  UNL1       -0.2471
     11 C          61.1052   86.4839    9.3068 C.ar    1  UNL1        0.0695
     12 N          64.7793   82.9306   15.7805 N.3     1  UNL1       -0.3222
     13 C          64.1588   83.8141   14.7392 C.3     1  UNL1        0.0509
     14 C          64.5058   85.2726   14.6894 C.3     1  UNL1        0.0169
     15 C          63.8853   86.1561   13.6481 C.3     1  UNL1        0.0173
     16 C          62.9177   85.5811   12.6565 C.3     1  UNL1        0.0579
     17 C          62.5706   84.1227   12.7063 C.3     1  UNL1        0.0173
     18 C          63.1912   83.2392   13.7476 C.3     1  UNL1        0.0169
     19 H          65.4065   83.4830   16.3651 H       1  UNL1        0.1188
     20 H          65.3070   82.1864   15.3243 H       1  UNL1        0.1188
     21 C          61.7559   87.8099   11.9989 C.3     1  UNL1        0.0885
     22 C          62.5521   89.0484   11.7119 C.3     1  UNL1        0.0748
     23 C          63.4475   89.6258   12.7677 C.3     1  UNL1        0.0432
     24 C          64.2438   90.8643   12.4807 C.ar    1  UNL1       -0.0234
     25 C          65.1392   91.4417   13.5365 C.ar    1  UNL1       -0.0045
     26 C          65.9353   92.6801   13.2494 C.ar    1  UNL1       -0.0003
     27 C          65.8361   93.3411   11.9066 C.ar    1  UNL1       -0.0003
     28 C          64.9406   92.7637   10.8508 C.ar    1  UNL1       -0.0032
     29 C          64.1445   91.5252   11.1378 C.ar    1  UNL1       -0.0103
     30 C          63.2490   90.9478   10.0820 C.3     1  UNL1        0.0953
     31 N          62.4529   89.7094   10.3690 N.3     1  UNL1       -0.2934
     32 H          62.7310   89.0135    9.6770 H       1  UNL1        0.1236
@<TRIPOS>BOND
     1    13    12    1
     2    13    14    1
     3    14    15    1
     4    15    16    1
     5    16     1    1
     6     1    21    1
     7    22    21    1
     8    22    23    1
     9    23    24    1
    10    24    25   ar
    11    25    26   ar
    12    26    27   ar
    13    27    28   ar
    14    28    29   ar
    15    29    30    1
    16    30    31    1
    17     2     1    1
    18     2     3    1
    19     3     4    1
    20     4     5    1
    21     5     6    1
    22     6     7   ar
    23     7     8   ar
    24     8     9   ar
    25     9    10   ar
    26    10    11   ar
    27    16    17    1
    28    17    18    1
    29    18    13    1
    30    31    22    1
    31    11     2    1
    32    29    24   ar
    33    11     6   ar
    34    12    19    1
    35    12    20    1
    36    31    32    1
@<TRIPOS>MOLECULE
*****
 32 36 0 0 0
SMALL
GASTEIGER

@<TRIPOS>ATOM
      1 N          63.3383   90.2242   12.3595 N.3     1  UNL1       -0.2692
      2 C          64.2930   91.3496   12.0911 C.3     1  UNL1        0.0978
      3 C          64.4625   91.8726   10.6956 C.3     1  UNL1        0.0224
      4 C          65.4172   92.9981   10.4272 C.3     1  UNL1        0.0065
      5 C          66.2023   93.6005   11.5544 C.3     1  UNL1        0.0277
      6 C          66.0328   93.0774   12.9499 C.ar    1  UNL1       -0.0073
      7 C          66.8180   93.6798   14.0772 C.ar    1  UNL1       -0.0015
      8 C          66.6485   93.1568   15.4728 C.ar    1  UNL1        0.0203
      9 C          65.6938   92.0314   15.7412 C.ar    1  UNL1        0.0985
     10 N          64.9086   91.4290   14.6140 N.ar    1  UNL1       -0.2471
     11 C          65.0781   91.9520   13.2183 C.ar    1  UNL1        0.0695
     12 N          59.3759   88.5861    8.1625 N.3     1  UNL1       -0.3222
     13 C          60.3664   88.9956    9.2117 C.3     1  UNL1        0.0509
     14 C          60.0167   90.0750   10.1929 C.3     1  UNL1        0.0169
     15 C          61.0072   90.4845   11.2421 C.3     1  UNL1        0.0173
     16 C          62.3477   89.8147   11.3103 C.3     1  UNL1        0.0579
     17 C          62.6975   88.7353   10.3291 C.3     1  UNL1        0.0173
     18 C          61.7068   88.3258    9.2798 C.3     1  UNL1        0.0169
     19 H          58.5257   89.1407    8.2626 H       1  UNL1        0.1188
     20 H          59.1518   87.5972    8.2739 H       1  UNL1        0.1188
     21 C          63.3742   89.5084   13.6771 C.3     1  UNL1        0.0885
     22 C          63.6184   88.0289   13.7206 C.3     1  UNL1        0.0748
     23 C          63.0611   87.1449   12.6446 C.3     1  UNL1        0.0432
     24 C          63.3053   85.6655   12.6880 C.ar    1  UNL1       -0.0234
     25 C          62.7479   84.7815   11.6120 C.ar    1  UNL1       -0.0045
     26 C          62.9921   83.3022   11.6554 C.ar    1  UNL1       -0.0003
     27 C          63.7936   82.7069   12.7749 C.ar    1  UNL1       -0.0003
     28 C          64.3510   83.5909   13.8509 C.ar    1  UNL1       -0.0032
     29 C          64.1068   85.0702   13.8074 C.ar    1  UNL1       -0.0103
     30 C          64.6641   85.9543   14.8835 C.3     1  UNL1        0.0953
     31 N          64.4199   87.4336   14.8400 N.3     1  UNL1       -0.2934
     32 H          65.3355   87.8827   14.8178 H       1  UNL1        0.1236
@<TRIPOS>BOND
     1    13    12    1
     2    13    14    1
     3    14    15    1
     4    15    16    1
     5    16     1    1
     6     1    21    1
     7    22    21    1
     8    22    23    1
     9    23    24    1
    10    24    25   ar
    11    25    26   ar
    12    26    27   ar
    13    27    28   ar
    14    28    29   ar
    15    29    30    1
    16    30    31    1
    17     2     1    1
    18     2     3    1
    19     3     4    1
    20     4     5    1
    21     5     6    1
    22     6     7   ar
    23     7     8   ar
    24     8     9   ar
    25     9    10   ar
    26    10    11   ar
    27    16    17    1
    28    17    18    1
    29    18    13    1
    30    31    22    1
    31    11     2    1
    32    29    24   ar
    33    11     6   ar
    34    12    19    1
    35    12    20    1
    36    31    32    1
@<TRIPOS>MOLECULE
*****
 32 36 0 0 0
SMALL
GASTEIGER

@<TRIPOS>ATOM
      1 N          62.5248   87.9108   11.5584 N.3     1  UNL1       -0.2692
      2 C          63.1011   89.2956   11.5474 C.3     1  UNL1        0.0978
      3 C          63.1213   90.0895   10.2748 C.3     1  UNL1        0.0224
      4 C          63.6977   91.4743   10.2638 C.3     1  UNL1        0.0065
      5 C          64.2539   92.0652   11.5252 C.3     1  UNL1        0.0277
      6 C          64.2337   91.2714   12.7978 C.ar    1  UNL1       -0.0073
      7 C          64.7899   91.8624   14.0593 C.ar    1  UNL1       -0.0015
      8 C          64.7697   91.0686   15.3319 C.ar    1  UNL1        0.0203
      9 C          64.1933   89.6838   15.3429 C.ar    1  UNL1        0.0985
     10 N          63.6371   89.0928   14.0815 N.ar    1  UNL1       -0.2471
     11 C          63.6573   89.8866   12.8088 C.ar    1  UNL1        0.0695
     12 N          58.5773   86.2706    7.3481 N.3     1  UNL1       -0.3222
     13 C          59.5642   86.6806    8.4007 C.3     1  UNL1        0.0509
     14 C          59.1109   87.4910    9.5787 C.3     1  UNL1        0.0169
     15 C          60.0977   87.9011   10.6313 C.3     1  UNL1        0.0173
     16 C          61.5379   87.5008   10.5058 C.3     1  UNL1        0.0579
     17 C          61.9912   86.6904    9.3278 C.3     1  UNL1        0.0173
     18 C          61.0043   86.2803    8.2752 C.3     1  UNL1        0.0169
     19 H          57.6528   86.6258    7.5920 H       1  UNL1        0.1188
     20 H          58.5460   85.2527    7.2895 H       1  UNL1        0.1188
     21 C          62.9352   86.9361   12.6221 C.3     1  UNL1        0.0885
     22 C          62.9510   85.4656   12.3261 C.3     1  UNL1        0.0748
     23 C          62.5256   84.4843   13.3777 C.3     1  UNL1        0.0432
     24 C          62.5414   83.0138   13.0818 C.ar    1  UNL1       -0.0234
     25 C          62.1159   82.0325   14.1334 C.ar    1  UNL1       -0.0045
     26 C          62.1318   80.5621   13.8374 C.ar    1  UNL1       -0.0003
     27 C          62.5731   80.0730   12.4898 C.ar    1  UNL1       -0.0003
     28 C          62.9986   81.0544   11.4382 C.ar    1  UNL1       -0.0032
     29 C          62.9827   82.5247   11.7342 C.ar    1  UNL1       -0.0103
     30 C          63.4082   83.5062   10.6825 C.3     1  UNL1        0.0953
     31 N          63.3924   84.9765   10.9785 N.3     1  UNL1       -0.2934
     32 H          62.7743   85.4085   10.2916 H       1  UNL1        0.1236
@<TRIPOS>BOND
     1    13    12    1
     2    13    14    1
     3    14    15    1
     4    15    16    1
     5    16     1    1
     6     1    21    1
     7    22    21    1
     8    22    23    1
     9    23    24    1
    10    24    25   ar
    11    25    26   ar
    12    26    27   ar
    13    27    28   ar
    14    28    29   ar
    15    29    30    1
    16    30    31    1
    17     2     1    1
    18     2     3    1
    19     3     4    1
    20     4     5    1
    21     5     6    1
    22     6     7   ar
    23     7     8   ar
    24     8     9   ar
    25     9    10   ar
    26    10    11   ar
    27    16    17    1
    28    17    18    1
    29    18    13    1
    30    31    22    1
    31    11     2    1
    32    29    24   ar
    33    11     6   ar
    34    12    19    1
    35    12    20    1
    36    31    32    1
@<TRIPOS>MOLECULE
*****
 32 36 0 0 0
SMALL
GASTEIGER

@<TRIPOS>ATOM
      1 N          62.3500   87.1124   11.5241 N.3     1  UNL1       -0.2692
      2 C          63.1188   86.3532   12.5645 C.3     1  UNL1        0.0978
      3 C          63.8762   87.0938   13.6265 C.3     1  UNL1        0.0224
      4 C          64.6450   86.3346   14.6670 C.3     1  UNL1        0.0065
      5 C          64.6565   84.8348   14.6454 C.3     1  UNL1        0.0277
      6 C          63.8992   84.0942   13.5833 C.ar    1  UNL1       -0.0073
      7 C          63.9107   82.5944   13.5617 C.ar    1  UNL1       -0.0015
      8 C          63.1534   81.8538   12.4997 C.ar    1  UNL1        0.0203
      9 C          62.3845   82.6130   11.4593 C.ar    1  UNL1        0.0985
     10 N          62.3730   84.1128   11.4809 N.ar    1  UNL1       -0.2471
     11 C          63.1303   84.8534   12.5429 C.ar    1  UNL1        0.0695
     12 N          61.3216   84.6401    6.1548 N.3     1  UNL1       -0.3222
     13 C          61.5787   85.2582    7.4971 C.3     1  UNL1        0.0509
     14 C          60.4624   85.9317    8.2388 C.3     1  UNL1        0.0169
     15 C          60.7195   86.5498    9.5811 C.3     1  UNL1        0.0173
     16 C          62.0929   86.4943   10.1818 C.3     1  UNL1        0.0579
     17 C          63.2092   85.8207    9.4400 C.3     1  UNL1        0.0173
     18 C          62.9521   85.2026    8.0976 C.3     1  UNL1        0.0169
     19 H          60.3418   84.7698    5.9027 H       1  UNL1        0.1188
     20 H          61.5336   83.6431    6.1933 H       1  UNL1        0.1188
     21 C          61.8381   88.4896   11.8260 C.3     1  UNL1        0.0885
     22 C          62.7087   89.6851   11.5747 C.3     1  UNL1        0.0748
     23 C          63.6033   90.2032   12.6615 C.3     1  UNL1        0.0432
     24 C          64.4739   91.3986   12.4101 C.ar    1  UNL1       -0.0234
     25 C          65.3685   91.9167   13.4969 C.ar    1  UNL1       -0.0045
     26 C          66.2390   93.1121   13.2456 C.ar    1  UNL1       -0.0003
     27 C          66.2149   93.7894   11.9074 C.ar    1  UNL1       -0.0003
     28 C          65.3202   93.2713   10.8206 C.ar    1  UNL1       -0.0032
     29 C          64.4497   92.0760   11.0720 C.ar    1  UNL1       -0.0103
     30 C          63.5551   91.5578    9.9852 C.3     1  UNL1        0.0953
     31 N          62.6846   90.3624   10.2365 N.3     1  UNL1       -0.2934
     32 H          62.9443   89.6585    9.5455 H       1  UNL1        0.1236
@<TRIPOS>BOND
     1    13    12    1
     2    13    14    1
     3    14    15    1
     4    15    16    1
     5    16     1    1
     6     1    21    1
     7    22    21    1
     8    22    23    1
     9    23    24    1
    10    24    25   ar
    11    25    26   ar
    12    26    27   ar
    13    27    28   ar
    14    28    29   ar
    15    29    30    1
    16    30    31    1
    17     2     1    1
    18     2     3    1
    19     3     4    1
    20     4     5    1
    21     5     6    1
    22     6     7   ar
    23     7     8   ar
    24     8     9   ar
    25     9    10   ar
    26    10    11   ar
    27    16    17    1
    28    17    18    1
    29    18    13    1
    30    31    22    1
    31    11     2    1
    32    29    24   ar
    33    11     6   ar
    34    12    19    1
    35    12    20    1
    36    31    32    1
@<TRIPOS>MOLECULE
*****
 32 36 0 0 0
SMALL
GASTEIGER

@<TRIPOS>ATOM
      1 N          61.9359   87.4523   10.8782 N.3     1  UNL1       -0.2692
      2 C          62.4827   88.8487   10.8480 C.3     1  UNL1        0.0978
      3 C          62.2445   89.7218    9.6518 C.3     1  UNL1        0.0224
      4 C          62.7913   91.1182    9.6216 C.3     1  UNL1        0.0065
      5 C          63.5764   91.6416   10.7877 C.3     1  UNL1        0.0277
      6 C          63.8146   90.7685   11.9839 C.ar    1  UNL1       -0.0073
      7 C          64.5997   91.2919   13.1500 C.ar    1  UNL1       -0.0015
      8 C          64.8380   90.4188   14.3462 C.ar    1  UNL1        0.0203
      9 C          64.2911   89.0224   14.3764 C.ar    1  UNL1        0.0985
     10 N          63.5060   88.4990   13.2104 N.ar    1  UNL1       -0.2471
     11 C          63.2678   89.3721   12.0141 C.ar    1  UNL1        0.0695
     12 N          61.3926   84.3324    5.7821 N.3     1  UNL1       -0.3222
     13 C          61.5285   85.1123    7.0561 C.3     1  UNL1        0.0509
     14 C          62.8429   85.1467    7.7779 C.3     1  UNL1        0.0169
     15 C          62.9787   85.9267    9.0520 C.3     1  UNL1        0.0173
     16 C          61.8000   86.6723    9.6042 C.3     1  UNL1        0.0579
     17 C          60.4856   86.6379    8.8823 C.3     1  UNL1        0.0173
     18 C          60.3498   85.8579    7.6082 C.3     1  UNL1        0.0169
     19 H          62.2846   83.8923    5.5561 H       1  UNL1        0.1188
     20 H          61.1224   84.9611    5.0257 H       1  UNL1        0.1188
     21 C          61.5248   86.8358   12.1824 C.3     1  UNL1        0.0885
     22 C          62.2065   85.5926   12.6722 C.3     1  UNL1        0.0748
     23 C          61.9001   84.2691   12.0363 C.3     1  UNL1        0.0432
     24 C          62.5818   83.0259   12.5261 C.ar    1  UNL1       -0.0234
     25 C          62.2754   81.7024   11.8902 C.ar    1  UNL1       -0.0045
     26 C          62.9570   80.4593   12.3800 C.ar    1  UNL1       -0.0003
     27 C          63.9451   80.5397   13.5057 C.ar    1  UNL1       -0.0003
     28 C          64.2515   81.8632   14.1417 C.ar    1  UNL1       -0.0032
     29 C          63.5698   83.1063   13.6518 C.ar    1  UNL1       -0.0103
     30 C          63.8762   84.4299   14.2878 C.3     1  UNL1        0.0953
     31 N          63.1945   85.6730   13.7979 N.3     1  UNL1       -0.2934
     32 H          63.9298   86.3137   13.4992 H       1  UNL1        0.1236
@<TRIPOS>BOND
     1    13    12    1
     2    13    14    1
     3    14    15    1
     4    15    16    1
     5    16     1    1
     6     1    21    1
     7    22    21    1
     8    22    23    1
     9    23    24    1
    10    24    25   ar
    11    25    26   ar
    12    26    27   ar
    13    27    28   ar
    14    28    29   ar
    15    29    30    1
    16    30    31    1
    17     2     1    1
    18     2     3    1
    19     3     4    1
    20     4     5    1
    21     5     6    1
    22     6     7   ar
    23     7     8   ar
    24     8     9   ar
    25     9    10   ar
    26    10    11   ar
    27    16    17    1
    28    17    18    1
    29    18    13    1
    30    31    22    1
    31    11     2    1
    32    29    24   ar
    33    11     6   ar
    34    12    19    1
    35    12    20    1
    36    31    32    1
@<TRIPOS>MOLECULE
*****
 32 36 0 0 0
SMALL
GASTEIGER

@<TRIPOS>ATOM
      1 N          62.6184   94.8325   -2.7394 N.3     1  UNL1       -0.2692
      2 C          63.4479   94.8959   -1.4912 C.3     1  UNL1        0.0978
      3 C          64.6375   95.8073   -1.4267 C.3     1  UNL1        0.0224
      4 C          65.4670   95.8706   -0.1785 C.3     1  UNL1        0.0065
      5 C          65.1069   95.0225    1.0051 C.3     1  UNL1        0.0277
      6 C          63.9173   94.1111    0.9406 C.ar    1  UNL1       -0.0073
      7 C          63.5572   93.2630    2.1243 C.ar    1  UNL1       -0.0015
      8 C          62.3676   92.3516    2.0598 C.ar    1  UNL1        0.0203
      9 C          61.5381   92.2882    0.8116 C.ar    1  UNL1        0.0985
     10 N          61.8982   93.1363   -0.3720 N.ar    1  UNL1       -0.2471
     11 C          63.0878   94.0478   -0.3075 C.ar    1  UNL1        0.0695
     12 N          64.6578   91.8841   -7.5505 N.3     1  UNL1       -0.3222
     13 C          64.1480   92.6212   -6.3477 C.3     1  UNL1        0.0509
     14 C          63.1486   93.7274   -6.5139 C.3     1  UNL1        0.0169
     15 C          62.6387   94.4645   -5.3112 C.3     1  UNL1        0.0173
     16 C          63.1283   94.0954   -3.9421 C.3     1  UNL1        0.0579
     17 C          64.1277   92.9893   -3.7759 C.3     1  UNL1        0.0173
     18 C          64.6376   92.2522   -4.9788 C.3     1  UNL1        0.0169
     19 H          64.2223   92.2631   -8.3914 H       1  UNL1        0.1188
     20 H          64.4280   90.8940   -7.4652 H       1  UNL1        0.1188
     21 C          61.2790   95.5063   -2.7848 C.3     1  UNL1        0.0885
     22 C          60.0377   94.7305   -2.4573 C.3     1  UNL1        0.0748
     23 C          59.4660   93.7721   -3.4596 C.3     1  UNL1        0.0432
     24 C          58.2246   92.9962   -3.1321 C.ar    1  UNL1       -0.0234
     25 C          57.6529   92.0378   -4.1344 C.ar    1  UNL1       -0.0045
     26 C          56.4116   91.2620   -3.8069 C.ar    1  UNL1       -0.0003
     27 C          55.7420   91.4447   -2.4771 C.ar    1  UNL1       -0.0003
     28 C          56.3137   92.4031   -1.4749 C.ar    1  UNL1       -0.0032
     29 C          57.5550   93.1788   -1.8023 C.ar    1  UNL1       -0.0103
     30 C          58.1268   94.1373   -0.8000 C.3     1  UNL1        0.0953
     31 N          59.3681   94.9131   -1.1275 N.3     1  UNL1       -0.2934
     32 H          60.0590   94.6776   -0.4151 H       1  UNL1        0.1236
@<TRIPOS>BOND
     1    13    12    1
     2    13    14    1
     3    14    15    1
     4    15    16    1
     5    16     1    1
     6     1    21    1
     7    22    21    1
     8    22    23    1
     9    23    24    1
    10    24    25   ar
    11    25    26   ar
    12    26    27   ar
    13    27    28   ar
    14    28    29   ar
    15    29    30    1
    16    30    31    1
    17     2     1    1
    18     2     3    1
    19     3     4    1
    20     4     5    1
    21     5     6    1
    22     6     7   ar
    23     7     8   ar
    24     8     9   ar
    25     9    10   ar
    26    10    11   ar
    27    16    17    1
    28    17    18    1
    29    18    13    1
    30    31    22    1
    31    11     2    1
    32    29    24   ar
    33    11     6   ar
    34    12    19    1
    35    12    20    1
    36    31    32    1
