@<TRIPOS>MOLECULE
*****
 34 37 0 0 0
SMALL
GASTEIGER

@<TRIPOS>ATOM
      1 N          62.9712   90.8186   11.6803 N.am    1  UNL1       -0.2438
      2 C          63.5371   91.3987   10.4181 C.3     1  UNL1        0.1009
      3 C          64.7252   92.3122   10.4794 C.3     1  UNL1        0.0661
      4 C          65.3476   92.6455   11.8029 C.3     1  UNL1        0.1578
      5 O          64.7817   92.0653   13.0651 O.3     1  UNL1       -0.4375
      6 C          63.5935   91.1518   13.0039 C.2     1  UNL1        0.4051
      7 O          63.0276   90.5717   14.2660 O.2     1  UNL1       -0.2262
      8 C          66.2369   93.4369   10.8902 C.ar    1  UNL1        0.0137
      9 C          66.0463   94.9188   10.7568 C.ar    1  UNL1       -0.0010
     10 C          66.9356   95.7102    9.8442 C.ar    1  UNL1       -0.0002
     11 C          68.0153   95.0197    9.0650 C.ar    1  UNL1       -0.0000
     12 C          68.2059   93.5378    9.1983 C.ar    1  UNL1       -0.0002
     13 C          67.3166   92.7464   10.1110 C.ar    1  UNL1       -0.0010
     14 C          60.3988   90.4787   11.5497 C.3     1  UNL1        0.0265
     15 C          61.7830   89.9051   11.6190 C.3     1  UNL1        0.1011
     16 C          61.9791   88.4179   11.6271 C.ar    1  UNL1       -0.0042
     17 C          61.0707   87.5373   10.8213 C.ar    1  UNL1       -0.0026
     18 C          61.2668   86.0502   10.8293 C.ar    1  UNL1        0.0013
     19 C          62.3713   85.4438   11.6432 C.ar    1  UNL1        0.0193
     20 C          63.2797   86.3244   12.4490 C.ar    1  UNL1        0.0013
     21 C          63.0836   87.8115   12.4409 C.ar    1  UNL1       -0.0026
     22 C          62.5674   83.9566   11.6512 C.ar    1  UNL1        0.1011
     23 C          63.2949   83.2899   10.5215 C.ar    1  UNL1        0.0258
     24 C          63.4910   81.8028   10.5296 C.ar    1  UNL1        0.0638
     25 C          62.9595   80.9824   11.6673 C.ar    1  UNL1        0.2765
     26 O          63.1556   79.4953   11.6754 O.2     1  UNL1       -0.2655
     27 N          62.2321   81.6492   12.7971 N.ar    1  UNL1       -0.2146
     28 C          61.7006   80.8288   13.9349 C.3     1  UNL1        0.1571
     29 N          62.0360   83.1362   12.7890 N.ar    1  UNL1       -0.1668
     30 C          66.2788   93.2537   12.8094 C.3     1  UNL1        0.0471
     31 C          66.6614   92.4836   14.0384 C.3     1  UNL1        0.0357
     32 C          68.0863   92.0635   14.2469 C.3     1  UNL1        0.1373
     33 O          68.9346   91.6791   13.0710 O.3     1  UNL1       -0.3820
     34 H          68.5833   90.8687   12.6701 H       1  UNL1        0.2104
@<TRIPOS>BOND
     1    15    14    1
     2    15    16    1
     3    16    17   ar
     4    17    18   ar
     5    18    19   ar
     6    19    22    1
     7    22    23   ar
     8    23    24   ar
     9    24    25   ar
    10    25    26    2
    11    25    27   ar
    12    27    28    1
    13    27    29   ar
    14    19    20   ar
    15    20    21   ar
    16    15     1    1
    17     1     2    1
    18     2     3    1
    19     3     4    1
    20     4    30    1
    21    30    31    1
    22    31    32    1
    23    32    33    1
    24     4     8    1
    25     8     9   ar
    26     9    10   ar
    27    10    11   ar
    28    11    12   ar
    29    12    13   ar
    30     4     5    1
    31     5     6    1
    32     6     7    2
    33    21    16   ar
    34     6     1   am
    35    29    22   ar
    36    13     8   ar
    37    33    34    1
@<TRIPOS>MOLECULE
*****
 34 37 0 0 0
SMALL
GASTEIGER

@<TRIPOS>ATOM
      1 N          63.3858   90.5816   11.9869 N.am    1  UNL1       -0.2438
      2 C          64.1251   90.4944   13.2891 C.3     1  UNL1        0.1009
      3 C          65.3461   91.3356   13.5162 C.3     1  UNL1        0.0661
      4 C          65.8278   92.2640   12.4411 C.3     1  UNL1        0.1578
      5 O          65.0885   92.3513   11.1388 O.3     1  UNL1       -0.4375
      6 C          63.8675   91.5101   10.9117 C.2     1  UNL1        0.4051
      7 O          63.1282   91.5973    9.6095 O.2     1  UNL1       -0.2262
      8 C          66.8587   92.5315   13.4974 C.ar    1  UNL1        0.0137
      9 C          68.1741   91.8113   13.4610 C.ar    1  UNL1       -0.0010
     10 C          69.2050   92.0788   14.5173 C.ar    1  UNL1       -0.0002
     11 C          68.9205   93.0664   15.6099 C.ar    1  UNL1       -0.0000
     12 C          67.6052   93.7865   15.6463 C.ar    1  UNL1       -0.0002
     13 C          66.5742   93.5190   14.5900 C.ar    1  UNL1       -0.0010
     14 C          60.8322   90.3950   11.5462 C.3     1  UNL1        0.0265
     15 C          62.1648   89.7404   11.7598 C.3     1  UNL1        0.1011
     16 C          62.2765   88.2446   11.7464 C.ar    1  UNL1       -0.0042
     17 C          61.4575   87.4400   10.7811 C.ar    1  UNL1       -0.0026
     18 C          61.5692   85.9443   10.7677 C.ar    1  UNL1        0.0013
     19 C          62.4998   85.2531   11.7196 C.ar    1  UNL1        0.0193
     20 C          63.3188   86.0577   12.6850 C.ar    1  UNL1        0.0013
     21 C          63.2071   87.5534   12.6984 C.ar    1  UNL1       -0.0026
     22 C          62.6115   83.7573   11.7062 C.ar    1  UNL1        0.1011
     23 C          63.2394   83.0625   10.5345 C.ar    1  UNL1        0.0258
     24 C          63.3511   81.5667   10.5210 C.ar    1  UNL1        0.0638
     25 C          62.8348   80.7657   11.6794 C.ar    1  UNL1        0.2765
     26 O          62.9464   79.2699   11.6660 O.2     1  UNL1       -0.2655
     27 N          62.2068   81.4605   12.8512 N.ar    1  UNL1       -0.2146
     28 C          61.6905   80.6595   14.0095 C.3     1  UNL1        0.1571
     29 N          62.0952   82.9562   12.8646 N.ar    1  UNL1       -0.1668
     30 C          66.6676   93.2853   11.7328 C.3     1  UNL1        0.0471
     31 C          66.9045   93.1680   10.2563 C.3     1  UNL1        0.0357
     32 C          68.1229   92.4570    9.7464 C.3     1  UNL1        0.1373
     33 O          69.4693   93.1107    9.8458 O.3     1  UNL1       -0.3820
     34 H          69.4900   93.8964    9.2773 H       1  UNL1        0.2104
@<TRIPOS>BOND
     1    15    14    1
     2    15    16    1
     3    16    17   ar
     4    17    18   ar
     5    18    19   ar
     6    19    22    1
     7    22    23   ar
     8    23    24   ar
     9    24    25   ar
    10    25    26    2
    11    25    27   ar
    12    27    28    1
    13    27    29   ar
    14    19    20   ar
    15    20    21   ar
    16    15     1    1
    17     1     2    1
    18     2     3    1
    19     3     4    1
    20     4    30    1
    21    30    31    1
    22    31    32    1
    23    32    33    1
    24     4     8    1
    25     8     9   ar
    26     9    10   ar
    27    10    11   ar
    28    11    12   ar
    29    12    13   ar
    30     4     5    1
    31     5     6    1
    32     6     7    2
    33    21    16   ar
    34     6     1   am
    35    29    22   ar
    36    13     8   ar
    37    33    34    1
@<TRIPOS>MOLECULE
*****
 34 37 0 0 0
SMALL
GASTEIGER

@<TRIPOS>ATOM
      1 N          63.7348   88.0188   14.8496 N.am    1  UNL1       -0.2438
      2 C          63.8965   87.5402   13.4372 C.3     1  UNL1        0.1009
      3 C          63.8060   86.0754   13.1268 C.3     1  UNL1        0.0661
      4 C          63.5539   85.0894   14.2286 C.3     1  UNL1        0.1578
      5 O          63.3921   85.5680   15.6410 O.3     1  UNL1       -0.4375
      6 C          63.4826   87.0328   15.9515 C.2     1  UNL1        0.4051
      7 O          63.3209   87.5114   17.3638 O.2     1  UNL1       -0.2262
      8 C          63.6382   84.1556   13.0577 C.ar    1  UNL1        0.0137
      9 C          62.7415   84.3565   11.8721 C.ar    1  UNL1       -0.0010
     10 C          62.8258   83.4227   10.7012 C.ar    1  UNL1       -0.0002
     11 C          63.8069   82.2881   10.7159 C.ar    1  UNL1       -0.0000
     12 C          64.7036   82.0873   11.9015 C.ar    1  UNL1       -0.0002
     13 C          64.6193   83.0210   13.0724 C.ar    1  UNL1       -0.0010
     14 C          63.3423   90.0011   16.4825 C.3     1  UNL1        0.0265
     15 C          63.8252   89.4836   15.1600 C.3     1  UNL1        0.1011
     16 C          64.3986   90.4308   14.1480 C.ar    1  UNL1       -0.0042
     17 C          65.7429   91.0539   14.3812 C.ar    1  UNL1       -0.0026
     18 C          66.3162   92.0011   13.3692 C.ar    1  UNL1        0.0013
     19 C          65.5452   92.3250   12.1240 C.ar    1  UNL1        0.0193
     20 C          64.2009   91.7018   11.8907 C.ar    1  UNL1        0.0013
     21 C          63.6276   90.7547   12.9028 C.ar    1  UNL1       -0.0026
     22 C          66.1186   93.2722   11.1119 C.ar    1  UNL1        0.1011
     23 C          67.3602   92.9012   10.3565 C.ar    1  UNL1        0.0258
     24 C          67.9336   93.8484    9.3445 C.ar    1  UNL1        0.0638
     25 C          67.2653   95.1665    9.0879 C.ar    1  UNL1        0.2765
     26 O          67.8386   96.1137    8.0759 O.2     1  UNL1       -0.2655
     27 N          66.0235   95.5375    9.8434 N.ar    1  UNL1       -0.2146
     28 C          65.3552   96.8556    9.5868 C.3     1  UNL1        0.1571
     29 N          65.4502   94.5903   10.8553 N.ar    1  UNL1       -0.1668
     30 C          63.3310   83.7790   14.9238 C.3     1  UNL1        0.0471
     31 C          61.9435   83.2231   15.0494 C.3     1  UNL1        0.0357
     32 C          61.6294   81.8607   14.5060 C.3     1  UNL1        0.1373
     33 O          62.6480   80.7635   14.5978 O.3     1  UNL1       -0.3820
     34 H          63.4136   80.9860   14.0454 H       1  UNL1        0.2104
@<TRIPOS>BOND
     1    15    14    1
     2    15    16    1
     3    16    17   ar
     4    17    18   ar
     5    18    19   ar
     6    19    22    1
     7    22    23   ar
     8    23    24   ar
     9    24    25   ar
    10    25    26    2
    11    25    27   ar
    12    27    28    1
    13    27    29   ar
    14    19    20   ar
    15    20    21   ar
    16    15     1    1
    17     1     2    1
    18     2     3    1
    19     3     4    1
    20     4    30    1
    21    30    31    1
    22    31    32    1
    23    32    33    1
    24     4     8    1
    25     8     9   ar
    26     9    10   ar
    27    10    11   ar
    28    11    12   ar
    29    12    13   ar
    30     4     5    1
    31     5     6    1
    32     6     7    2
    33    21    16   ar
    34     6     1   am
    35    29    22   ar
    36    13     8   ar
    37    33    34    1
@<TRIPOS>MOLECULE
*****
 34 37 0 0 0
SMALL
GASTEIGER

@<TRIPOS>ATOM
      1 N          64.4668   90.5113   14.6255 N.am    1  UNL1       -0.2438
      2 C          64.7432   90.5483   13.1517 C.3     1  UNL1        0.1009
      3 C          65.5067   91.6961   12.5604 C.3     1  UNL1        0.0661
      4 C          65.9937   92.8070   13.4429 C.3     1  UNL1        0.1578
      5 O          65.7172   92.7700   14.9168 O.3     1  UNL1       -0.4375
      6 C          64.9538   91.6222   15.5081 C.2     1  UNL1        0.4051
      7 O          64.6773   91.5852   16.9819 O.2     1  UNL1       -0.2262
      8 C          66.5004   93.2877   12.1154 C.ar    1  UNL1        0.0137
      9 C          67.3210   92.3767   11.2512 C.ar    1  UNL1       -0.0010
     10 C          67.8277   92.8574    9.9237 C.ar    1  UNL1       -0.0002
     11 C          67.5138   94.2492    9.4606 C.ar    1  UNL1       -0.0000
     12 C          66.6933   95.1602   10.3247 C.ar    1  UNL1       -0.0002
     13 C          66.1866   94.6794   11.6522 C.ar    1  UNL1       -0.0010
     14 C          63.0121   89.5240   16.5383 C.3     1  UNL1        0.0265
     15 C          63.7033   89.3635   15.2168 C.3     1  UNL1        0.1011
     16 C          63.6310   88.0552   14.4866 C.ar    1  UNL1       -0.0042
     17 C          63.1429   88.0136   13.0688 C.ar    1  UNL1       -0.0026
     18 C          63.0707   86.7054   12.3387 C.ar    1  UNL1        0.0013
     19 C          63.4866   85.4387   13.0262 C.ar    1  UNL1        0.0193
     20 C          63.9747   85.4804   14.4439 C.ar    1  UNL1        0.0013
     21 C          64.0469   86.7886   15.1741 C.ar    1  UNL1       -0.0026
     22 C          63.4144   84.1304   12.2959 C.ar    1  UNL1        0.1011
     23 C          63.7902   84.0593   10.8455 C.ar    1  UNL1        0.0258
     24 C          63.7180   82.7510   10.1153 C.ar    1  UNL1        0.0638
     25 C          63.2699   81.5139   10.8355 C.ar    1  UNL1        0.2765
     26 O          63.1977   80.2056   10.1053 O.2     1  UNL1       -0.2655
     27 N          62.8940   81.5850   12.2859 N.ar    1  UNL1       -0.2146
     28 C          62.4460   80.3479   13.0061 C.3     1  UNL1        0.1571
     29 N          62.9663   82.8933   13.0161 N.ar    1  UNL1       -0.1668
     30 C          66.6567   94.0848   13.8644 C.3     1  UNL1        0.0471
     31 C          67.5920   94.0931   15.0370 C.3     1  UNL1        0.0357
     32 C          68.7244   93.1115   15.1002 C.3     1  UNL1        0.1373
     33 O          68.4642   91.6915   15.5075 O.3     1  UNL1       -0.3820
     34 H          68.1773   91.6682   16.4338 H       1  UNL1        0.2104
@<TRIPOS>BOND
     1    15    14    1
     2    15    16    1
     3    16    17   ar
     4    17    18   ar
     5    18    19   ar
     6    19    22    1
     7    22    23   ar
     8    23    24   ar
     9    24    25   ar
    10    25    26    2
    11    25    27   ar
    12    27    28    1
    13    27    29   ar
    14    19    20   ar
    15    20    21   ar
    16    15     1    1
    17     1     2    1
    18     2     3    1
    19     3     4    1
    20     4    30    1
    21    30    31    1
    22    31    32    1
    23    32    33    1
    24     4     8    1
    25     8     9   ar
    26     9    10   ar
    27    10    11   ar
    28    11    12   ar
    29    12    13   ar
    30     4     5    1
    31     5     6    1
    32     6     7    2
    33    21    16   ar
    34     6     1   am
    35    29    22   ar
    36    13     8   ar
    37    33    34    1
