@<TRIPOS>MOLECULE
*****
 22 24 0 0 0
SMALL
GASTEIGER

@<TRIPOS>ATOM
      1 C          61.4509   88.2052   10.8369 C.ar    1  UNL1       -0.0158
      2 C          62.2068   86.9616   11.2003 C.ar    1  UNL1        0.0050
      3 S          61.9543   85.9375   10.1339 S.2     1  UNL1       -0.0915
      4 C          61.0424   86.5480    9.1114 C.ar    1  UNL1        0.0288
      5 C          60.4551   86.0088    7.8408 C.ar    1  UNL1        0.0065
      6 C          59.5567   86.8712    7.0047 C.ar    1  UNL1        0.0005
      7 C          59.2455   88.2728    7.4392 C.ar    1  UNL1        0.0000
      8 C          59.8328   88.8120    8.7098 C.ar    1  UNL1        0.0002
      9 C          60.7312   87.9496    9.5458 C.ar    1  UNL1        0.0025
     10 C          60.1657   89.8912   12.3389 C.3     1  UNL1        0.0095
     11 C          61.4200   89.4805   11.6259 C.3     1  UNL1        0.0463
     12 C          62.6433   90.3452   11.7020 C.ar    1  UNL1        0.0007
     13 C          63.1222   91.0761   10.4828 C.ar    1  UNL1       -0.0008
     14 C          64.3455   91.9408   10.5588 C.ar    1  UNL1        0.0204
     15 C          65.0899   92.0747   11.8542 C.ar    1  UNL1        0.0989
     16 N          64.6110   91.3439   13.0734 N.ar    1  UNL1       -0.2426
     17 C          63.3877   90.4792   12.9974 C.ar    1  UNL1        0.0949
     18 C          63.0646   86.7750   12.4166 C.3     1  UNL1        0.0499
     19 C          63.2951   85.3992   12.9679 C.3     1  UNL1        0.0774
     20 N          63.2787   85.1729   14.4507 N.3     1  UNL1       -0.2700
     21 C          64.1666   85.9881   15.3436 C.3     1  UNL1        0.0897
     22 C          62.3745   84.1316   15.0405 C.3     1  UNL1        0.0897
@<TRIPOS>BOND
     1    10    11    1
     2    11    12    1
     3    12    13   ar
     4    13    14   ar
     5    14    15   ar
     6    15    16   ar
     7    16    17   ar
     8    11     1    1
     9     1     2   ar
    10     2    18    1
    11    18    19    1
    12    19    20    1
    13    20    21    1
    14    20    22    1
    15     2     3   ar
    16     3     4   ar
    17     4     5   ar
    18     5     6   ar
    19     6     7   ar
    20     7     8   ar
    21     8     9   ar
    22    17    12   ar
    23     9     1   ar
    24     9     4   ar
@<TRIPOS>MOLECULE
*****
 22 24 0 0 0
SMALL
GASTEIGER

@<TRIPOS>ATOM
      1 C          64.0824   90.6810   14.1860 C.ar    1  UNL1       -0.0158
      2 C          65.2331   91.6072   13.9255 C.ar    1  UNL1        0.0050
      3 S          65.1950   91.9979   12.4778 S.2     1  UNL1       -0.0915
      4 C          64.0207   91.3131   11.8436 C.ar    1  UNL1        0.0288
      5 C          63.4887   91.3256   10.4412 C.ar    1  UNL1        0.0065
      6 C          62.2691   90.5242   10.0946 C.ar    1  UNL1        0.0005
      7 C          61.5815   89.7103   11.1504 C.ar    1  UNL1        0.0000
      8 C          62.1134   89.6978   12.5528 C.ar    1  UNL1        0.0002
      9 C          63.3331   90.4993   12.8994 C.ar    1  UNL1        0.0025
     10 C          63.4009   90.9083   16.6829 C.3     1  UNL1        0.0095
     11 C          63.7409   90.0477   15.5022 C.3     1  UNL1        0.0463
     12 C          63.7393   88.5539   15.6378 C.ar    1  UNL1        0.0007
     13 C          64.4679   87.7090   14.6351 C.ar    1  UNL1       -0.0008
     14 C          64.4664   86.2151   14.7707 C.ar    1  UNL1        0.0204
     15 C          63.7363   85.5661   15.9090 C.ar    1  UNL1        0.0989
     16 N          63.0077   86.4110   16.9117 N.ar    1  UNL1       -0.2426
     17 C          63.0092   87.9048   16.7761 C.ar    1  UNL1        0.0949
     18 C          66.2445   92.0627   14.9353 C.3     1  UNL1        0.0499
     19 C          67.0943   93.2665   14.6552 C.3     1  UNL1        0.0774
     20 N          68.5638   93.2333   14.9546 N.3     1  UNL1       -0.2700
     21 C          69.4654   92.3141   14.1851 C.3     1  UNL1        0.0897
     22 C          69.1316   94.1193   16.0235 C.3     1  UNL1        0.0897
@<TRIPOS>BOND
     1    10    11    1
     2    11    12    1
     3    12    13   ar
     4    13    14   ar
     5    14    15   ar
     6    15    16   ar
     7    16    17   ar
     8    11     1    1
     9     1     2   ar
    10     2    18    1
    11    18    19    1
    12    19    20    1
    13    20    21    1
    14    20    22    1
    15     2     3   ar
    16     3     4   ar
    17     4     5   ar
    18     5     6   ar
    19     6     7   ar
    20     7     8   ar
    21     8     9   ar
    22    17    12   ar
    23     9     1   ar
    24     9     4   ar
@<TRIPOS>MOLECULE
*****
 22 24 0 0 0
SMALL
GASTEIGER

@<TRIPOS>ATOM
      1 C          63.8135   90.6154   13.7223 C.ar    1  UNL1       -0.0158
      2 C          62.7722   90.3514   12.6756 C.ar    1  UNL1        0.0050
      3 S          63.2224   90.9996   11.4000 S.2     1  UNL1       -0.0915
      4 C          64.5420   91.6643   11.6584 C.ar    1  UNL1        0.0288
      5 C          65.4581   92.4550   10.7722 C.ar    1  UNL1        0.0065
      6 C          66.7396   93.0084   11.3214 C.ar    1  UNL1        0.0005
      7 C          67.1050   92.7710   12.7567 C.ar    1  UNL1        0.0000
      8 C          66.1888   91.9802   13.6429 C.ar    1  UNL1        0.0002
      9 C          64.9074   91.4269   13.0937 C.ar    1  UNL1        0.0025
     10 C          63.7526   91.1519   16.2638 C.3     1  UNL1        0.0095
     11 C          63.7690   90.1499   15.1476 C.3     1  UNL1        0.0463
     12 C          63.7407   88.6824   15.4567 C.ar    1  UNL1        0.0007
     13 C          64.4424   87.7120   14.5533 C.ar    1  UNL1       -0.0008
     14 C          64.4142   86.2444   14.8624 C.ar    1  UNL1        0.0204
     15 C          63.6843   85.7473   16.0749 C.ar    1  UNL1        0.0989
     16 N          62.9828   86.7177   16.9783 N.ar    1  UNL1       -0.2426
     17 C          63.0109   88.1852   16.6692 C.ar    1  UNL1        0.0949
     18 C          61.5033   89.5753   12.8702 C.3     1  UNL1        0.0499
     19 C          60.4399   89.5991   11.8126 C.3     1  UNL1        0.0774
     20 N          60.4953   88.6274   10.6712 N.3     1  UNL1       -0.2700
     21 C          60.2041   89.0927    9.2753 C.3     1  UNL1        0.0897
     22 C          60.8420   87.1904   10.9258 C.3     1  UNL1        0.0897
@<TRIPOS>BOND
     1    10    11    1
     2    11    12    1
     3    12    13   ar
     4    13    14   ar
     5    14    15   ar
     6    15    16   ar
     7    16    17   ar
     8    11     1    1
     9     1     2   ar
    10     2    18    1
    11    18    19    1
    12    19    20    1
    13    20    21    1
    14    20    22    1
    15     2     3   ar
    16     3     4   ar
    17     4     5   ar
    18     5     6   ar
    19     6     7   ar
    20     7     8   ar
    21     8     9   ar
    22    17    12   ar
    23     9     1   ar
    24     9     4   ar
@<TRIPOS>MOLECULE
*****
 22 24 0 0 0
SMALL
GASTEIGER

@<TRIPOS>ATOM
      1 C          63.8426   90.8195   13.3382 C.ar    1  UNL1       -0.0158
      2 C          64.8089   91.6322   12.5284 C.ar    1  UNL1        0.0050
      3 S          64.2977   91.6916   11.1195 S.2     1  UNL1       -0.0915
      4 C          63.0154   90.9156   11.0585 C.ar    1  UNL1        0.0288
      5 C          62.0676   90.6301    9.9315 C.ar    1  UNL1        0.0065
      6 C          60.8386   89.8056   10.1758 C.ar    1  UNL1        0.0005
      7 C          60.5574   89.2667   11.5471 C.ar    1  UNL1        0.0000
      8 C          61.5052   89.5521   12.6741 C.ar    1  UNL1        0.0002
      9 C          62.7342   90.3766   12.4298 C.ar    1  UNL1        0.0025
     10 C          64.2064   91.6081   15.7869 C.3     1  UNL1        0.0095
     11 C          63.9635   90.5049   14.7999 C.3     1  UNL1        0.0463
     12 C          63.8416   89.0874   15.2746 C.ar    1  UNL1        0.0007
     13 C          64.4620   87.9750   14.4821 C.ar    1  UNL1       -0.0008
     14 C          64.3401   86.5573   14.9567 C.ar    1  UNL1        0.0204
     15 C          63.5979   86.2520   16.2240 C.ar    1  UNL1        0.0989
     16 N          62.9775   87.3642   17.0164 N.ar    1  UNL1       -0.2426
     17 C          63.0994   88.7819   16.5418 C.ar    1  UNL1        0.0949
     18 C          66.0657   92.2731   13.0380 C.3     1  UNL1        0.0499
     19 C          67.1656   92.6311   12.0829 C.3     1  UNL1        0.0774
     20 N          66.9781   93.7590   11.1120 N.3     1  UNL1       -0.2700
     21 C          67.4847   93.6302    9.7060 C.3     1  UNL1        0.0897
     22 C          66.2841   95.0156   11.5469 C.3     1  UNL1        0.0897
@<TRIPOS>BOND
     1    10    11    1
     2    11    12    1
     3    12    13   ar
     4    13    14   ar
     5    14    15   ar
     6    15    16   ar
     7    16    17   ar
     8    11     1    1
     9     1     2   ar
    10     2    18    1
    11    18    19    1
    12    19    20    1
    13    20    21    1
    14    20    22    1
    15     2     3   ar
    16     3     4   ar
    17     4     5   ar
    18     5     6   ar
    19     6     7   ar
    20     7     8   ar
    21     8     9   ar
    22    17    12   ar
    23     9     1   ar
    24     9     4   ar
@<TRIPOS>MOLECULE
*****
 22 24 0 0 0
SMALL
GASTEIGER

@<TRIPOS>ATOM
      1 C          63.3900   85.6676   12.9252 C.ar    1  UNL1       -0.0158
      2 C          62.8352   84.5386   12.1082 C.ar    1  UNL1        0.0050
      3 S          62.1585   85.1259   10.9052 S.2     1  UNL1       -0.0915
      4 C          62.2952   86.6178   10.9787 C.ar    1  UNL1        0.0288
      5 C          61.8250   87.7148   10.0701 C.ar    1  UNL1        0.0065
      6 C          62.1158   89.1465   10.4100 C.ar    1  UNL1        0.0005
      7 C          62.8769   89.4813   11.6584 C.ar    1  UNL1        0.0000
      8 C          63.3472   88.3843   12.5670 C.ar    1  UNL1        0.0002
      9 C          63.0563   86.9526   12.2271 C.ar    1  UNL1        0.0025
     10 C          65.4816   84.8525   14.2333 C.3     1  UNL1        0.0095
     11 C          64.1459   85.5348   14.2140 C.3     1  UNL1        0.0463
     12 C          63.5661   86.0844   15.4835 C.ar    1  UNL1        0.0007
     13 C          63.7599   87.5304   15.8323 C.ar    1  UNL1       -0.0008
     14 C          63.1802   88.0800   17.1018 C.ar    1  UNL1        0.0204
     15 C          62.4066   87.1836   18.0227 C.ar    1  UNL1        0.0989
     16 N          62.2128   85.7376   17.6741 N.ar    1  UNL1       -0.2426
     17 C          62.7925   85.1880   16.4045 C.ar    1  UNL1        0.0949
     18 C          62.9387   83.0786   12.4366 C.3     1  UNL1        0.0499
     19 C          62.2559   82.5338   13.6559 C.3     1  UNL1        0.0774
     20 N          61.7900   81.1082   13.6807 N.3     1  UNL1       -0.2700
     21 C          62.7140   80.0096   13.2456 C.3     1  UNL1        0.0897
     22 C          60.4002   80.7813   14.1406 C.3     1  UNL1        0.0897
@<TRIPOS>BOND
     1    10    11    1
     2    11    12    1
     3    12    13   ar
     4    13    14   ar
     5    14    15   ar
     6    15    16   ar
     7    16    17   ar
     8    11     1    1
     9     1     2   ar
    10     2    18    1
    11    18    19    1
    12    19    20    1
    13    20    21    1
    14    20    22    1
    15     2     3   ar
    16     3     4   ar
    17     4     5   ar
    18     5     6   ar
    19     6     7   ar
    20     7     8   ar
    21     8     9   ar
    22    17    12   ar
    23     9     1   ar
    24     9     4   ar
@<TRIPOS>MOLECULE
*****
 22 24 0 0 0
SMALL
GASTEIGER

@<TRIPOS>ATOM
      1 C          64.7399   91.7242   12.5645 C.ar    1  UNL1       -0.0158
      2 C          63.8695   90.7076   13.2418 C.ar    1  UNL1        0.0050
      3 S          64.2513   90.6627   14.6917 S.2     1  UNL1       -0.0915
      4 C          65.3578   91.6516   14.9105 C.ar    1  UNL1        0.0288
      5 C          66.1293   92.0394   16.1369 C.ar    1  UNL1        0.0065
      6 C          67.2029   93.0833   16.0487 C.ar    1  UNL1        0.0005
      7 C          67.5048   93.7393   14.7341 C.ar    1  UNL1        0.0000
      8 C          66.7333   93.3515   13.5076 C.ar    1  UNL1        0.0002
      9 C          65.6598   92.3077   13.5958 C.ar    1  UNL1        0.0025
     10 C          63.5759   91.6020   10.2450 C.3     1  UNL1        0.0095
     11 C          64.6980   92.0928   11.1111 C.3     1  UNL1        0.0463
     12 C          65.7780   92.9520   10.5237 C.ar    1  UNL1        0.0007
     13 C          67.0545   92.3281   10.0427 C.ar    1  UNL1       -0.0008
     14 C          68.1346   93.1873    9.4552 C.ar    1  UNL1        0.0204
     15 C          67.9382   94.6706    9.3489 C.ar    1  UNL1        0.0989
     16 N          66.6618   95.2946    9.8299 N.ar    1  UNL1       -0.2426
     17 C          65.5817   94.4353   10.4173 C.ar    1  UNL1        0.0949
     18 C          62.8042   89.8810   12.5846 C.3     1  UNL1        0.0499
     19 C          63.0735   88.4459   12.2414 C.3     1  UNL1        0.0774
     20 N          62.0597   87.6570   11.4667 N.3     1  UNL1       -0.2700
     21 C          62.2708   86.1907   11.2315 C.3     1  UNL1        0.0897
     22 C          60.8350   88.3345   10.9273 C.3     1  UNL1        0.0897
@<TRIPOS>BOND
     1    10    11    1
     2    11    12    1
     3    12    13   ar
     4    13    14   ar
     5    14    15   ar
     6    15    16   ar
     7    16    17   ar
     8    11     1    1
     9     1     2   ar
    10     2    18    1
    11    18    19    1
    12    19    20    1
    13    20    21    1
    14    20    22    1
    15     2     3   ar
    16     3     4   ar
    17     4     5   ar
    18     5     6   ar
    19     6     7   ar
    20     7     8   ar
    21     8     9   ar
    22    17    12   ar
    23     9     1   ar
    24     9     4   ar
@<TRIPOS>MOLECULE
*****
 22 24 0 0 0
SMALL
GASTEIGER

@<TRIPOS>ATOM
      1 C          62.9430   85.4126   11.9339 C.ar    1  UNL1       -0.0158
      2 C          63.4618   86.1354   13.1415 C.ar    1  UNL1        0.0050
      3 S          63.7943   85.1123   14.1868 S.2     1  UNL1       -0.0915
      4 C          63.4809   83.7571   13.6252 C.ar    1  UNL1        0.0288
      5 C          63.6067   82.3782   14.2019 C.ar    1  UNL1        0.0065
      6 C          63.2063   81.1848   13.3861 C.ar    1  UNL1        0.0005
      7 C          62.6801   81.3704   11.9938 C.ar    1  UNL1        0.0000
      8 C          62.5544   82.7493   11.4171 C.ar    1  UNL1        0.0002
      9 C          62.9548   83.9427   12.2329 C.ar    1  UNL1        0.0025
     10 C          62.7358   85.3548    9.3447 C.3     1  UNL1        0.0095
     11 C          62.4915   86.0480   10.6523 C.3     1  UNL1        0.0463
     12 C          61.7958   87.3766   10.6783 C.ar    1  UNL1        0.0007
     13 C          62.4705   88.5879   10.1058 C.ar    1  UNL1       -0.0008
     14 C          61.7749   89.9165   10.1316 C.ar    1  UNL1        0.0204
     15 C          60.4044   90.0340   10.7301 C.ar    1  UNL1        0.0989
     16 N          59.7297   88.8228   11.3026 N.ar    1  UNL1       -0.2426
     17 C          60.4254   87.4941   11.2767 C.ar    1  UNL1        0.0949
     18 C          63.6204   87.6206   13.2795 C.3     1  UNL1        0.0499
     19 C          64.3576   88.1901   14.4552 C.3     1  UNL1        0.0774
     20 N          63.7010   89.2215   15.3242 N.3     1  UNL1       -0.2700
     21 C          63.0959   88.8209   16.6370 C.3     1  UNL1        0.0897
     22 C          63.6495   90.6534   14.8804 C.3     1  UNL1        0.0897
@<TRIPOS>BOND
     1    10    11    1
     2    11    12    1
     3    12    13   ar
     4    13    14   ar
     5    14    15   ar
     6    15    16   ar
     7    16    17   ar
     8    11     1    1
     9     1     2   ar
    10     2    18    1
    11    18    19    1
    12    19    20    1
    13    20    21    1
    14    20    22    1
    15     2     3   ar
    16     3     4   ar
    17     4     5   ar
    18     5     6   ar
    19     6     7   ar
    20     7     8   ar
    21     8     9   ar
    22    17    12   ar
    23     9     1   ar
    24     9     4   ar
@<TRIPOS>MOLECULE
*****
 22 24 0 0 0
SMALL
GASTEIGER

@<TRIPOS>ATOM
      1 C          63.5193   86.7163   13.1959 C.ar    1  UNL1       -0.0158
      2 C          63.1437   85.3137   12.8196 C.ar    1  UNL1        0.0050
      3 S          62.3476   85.3719   11.5496 S.2     1  UNL1       -0.0915
      4 C          62.2311   86.8105   11.1410 C.ar    1  UNL1        0.0288
      5 C          61.5593   87.4712    9.9740 C.ar    1  UNL1        0.0065
      6 C          61.6116   88.9628    9.8244 C.ar    1  UNL1        0.0005
      7 C          62.3358   89.7937   10.8418 C.ar    1  UNL1        0.0000
      8 C          63.0076   89.1330   12.0089 C.ar    1  UNL1        0.0002
      9 C          62.9553   87.6414   12.1585 C.ar    1  UNL1        0.0025
     10 C          65.2730   86.1514   15.0277 C.3     1  UNL1        0.0095
     11 C          64.3185   87.1226   14.3984 C.3     1  UNL1        0.0463
     12 C          64.1634   88.4999   14.9718 C.ar    1  UNL1        0.0007
     13 C          64.9253   89.6487   14.3804 C.ar    1  UNL1       -0.0008
     14 C          64.7702   91.0261   14.9537 C.ar    1  UNL1        0.0204
     15 C          63.8532   91.2547   16.1186 C.ar    1  UNL1        0.0989
     16 N          63.0913   90.1059   16.7100 N.ar    1  UNL1       -0.2426
     17 C          63.2464   88.7285   16.1366 C.ar    1  UNL1        0.0949
     18 C          63.5014   84.0711   13.5797 C.3     1  UNL1        0.0499
     19 C          62.4189   83.1960   14.1386 C.3     1  UNL1        0.0774
     20 N          62.1004   81.8853   13.4825 N.3     1  UNL1       -0.2700
     21 C          62.7957   81.4939   12.2122 C.3     1  UNL1        0.0897
     22 C          61.0866   80.9660   14.0964 C.3     1  UNL1        0.0897
@<TRIPOS>BOND
     1    10    11    1
     2    11    12    1
     3    12    13   ar
     4    13    14   ar
     5    14    15   ar
     6    15    16   ar
     7    16    17   ar
     8    11     1    1
     9     1     2   ar
    10     2    18    1
    11    18    19    1
    12    19    20    1
    13    20    21    1
    14    20    22    1
    15     2     3   ar
    16     3     4   ar
    17     4     5   ar
    18     5     6   ar
    19     6     7   ar
    20     7     8   ar
    21     8     9   ar
    22    17    12   ar
    23     9     1   ar
    24     9     4   ar
@<TRIPOS>MOLECULE
*****
 22 24 0 0 0
SMALL
GASTEIGER

@<TRIPOS>ATOM
      1 C          63.4975   87.1293   13.0784 C.ar    1  UNL1       -0.0158
      2 C          63.6831   88.6073   13.2543 C.ar    1  UNL1        0.0050
      3 S          63.0094   89.2989   12.1063 S.2     1  UNL1       -0.0915
      4 C          62.4076   88.2483   11.2209 C.ar    1  UNL1        0.0288
      5 C          61.6238   88.3394    9.9452 C.ar    1  UNL1        0.0065
      6 C          61.1417   87.0896    9.2703 C.ar    1  UNL1        0.0005
      7 C          61.4434   85.7487    9.8711 C.ar    1  UNL1        0.0000
      8 C          62.2272   85.6576   11.1468 C.ar    1  UNL1        0.0002
      9 C          62.7092   86.9074   11.8217 C.ar    1  UNL1        0.0025
     10 C          64.9016   86.4251   15.1479 C.3     1  UNL1        0.0095
     11 C          64.0103   86.0607   13.9978 C.3     1  UNL1        0.0463
     12 C          63.6318   84.6278   13.7671 C.ar    1  UNL1        0.0007
     13 C          62.4383   84.0456   14.4647 C.ar    1  UNL1       -0.0008
     14 C          62.0597   82.6126   14.2341 C.ar    1  UNL1        0.0204
     15 C          62.8747   81.7617   13.3057 C.ar    1  UNL1        0.0989
     16 N          64.0682   82.3438   12.6081 N.ar    1  UNL1       -0.2426
     17 C          64.4467   83.7768   12.8388 C.ar    1  UNL1        0.0949
     18 C          64.4139   89.2763   14.3805 C.3     1  UNL1        0.0499
     19 C          64.1266   90.7102   14.7141 C.3     1  UNL1        0.0774
     20 N          65.1495   91.7677   14.4217 N.3     1  UNL1       -0.2700
     21 C          65.3998   92.1982   13.0068 C.3     1  UNL1        0.0897
     22 C          65.9221   92.3946   15.5443 C.3     1  UNL1        0.0897
@<TRIPOS>BOND
     1    10    11    1
     2    11    12    1
     3    12    13   ar
     4    13    14   ar
     5    14    15   ar
     6    15    16   ar
     7    16    17   ar
     8    11     1    1
     9     1     2   ar
    10     2    18    1
    11    18    19    1
    12    19    20    1
    13    20    21    1
    14    20    22    1
    15     2     3   ar
    16     3     4   ar
    17     4     5   ar
    18     5     6   ar
    19     6     7   ar
    20     7     8   ar
    21     8     9   ar
    22    17    12   ar
    23     9     1   ar
    24     9     4   ar
