@<TRIPOS>MOLECULE
*****
 34 37 0 0 0
SMALL
GASTEIGER

@<TRIPOS>ATOM
      1 C          62.6429   88.6789   11.4882 C.3     1  UNL1        0.0468
      2 C          61.8025   89.9226   10.0210 C.3     1  UNL1        0.0069
      3 C          63.1646   88.7676   12.2942 C.3     1  UNL1        0.0500
      4 C          63.5299   88.1528   12.9411 C.3     1  UNL1        0.1694
      5 C          63.8733   86.9880   13.6206 C.3     1  UNL1        0.0435
      6 C          64.6201   86.5451   14.8437 C.3     1  UNL1        0.0040
      7 C          63.4309   87.0199   12.9240 C.3     1  UNL1        0.0038
      8 C          63.9833   89.4979   13.4871 C.3     1  UNL1        0.0001
      9 C          62.9722   87.0629   12.2007 C.3     1  UNL1        0.0001
     10 C          62.7348   86.4193   11.9074 C.3     1  UNL1        0.0005
     11 C          62.4822   85.6986   11.5996 C.3     1  UNL1        0.0093
     12 C          62.2238   84.2386   11.3729 C.3     1  UNL1        0.0082
     13 C          62.8758   83.4741   12.4867 C.3     1  UNL1        0.0645
     14 C          63.5371   84.4618   13.4018 C.2     1  UNL1        0.1504
     15 O          64.3065   84.1324   14.6466 O.2     1  UNL1       -0.2961
     16 C          63.2938   85.8366   12.8535 C.3     1  UNL1        0.0610
     17 C          62.2653   86.9807   11.1038 C.3     1  UNL1        0.0276
     18 C          61.1610   85.9572    9.4996 C.3     1  UNL1        0.0025
     19 C          62.2703   87.9387   10.9951 C.3     1  UNL1        0.1141
     20 O          61.1750   88.5883    9.2011 O.3     1  UNL1       -0.3841
     21 H          61.2079   89.5555    9.1348 H       1  UNL1        0.2103
     22 C          63.7427   91.6977   10.7647 C.2     1  UNL1       -0.0048
     23 C          62.7191   90.7722   11.3526 C.2     1  UNL1       -0.0243
     24 O          64.6341   89.1763   14.5452 O.3     1  UNL1       -0.4516
     25 C          64.7749   90.6695   14.5243 C.2     1  UNL1        0.3284
     26 O          63.6184   91.5374   14.9230 O.2     1  UNL1       -0.2491
     27 C          66.0721   91.2947   14.1046 C.3     1  UNL1        0.1728
     28 S          66.1300   92.7590   13.7844 S.3     1  UNL1       -0.0830
     29 C          66.5123   93.2108   12.4060 C.ar    1  UNL1        0.1072
     30 C          67.1940   92.2599   11.4673 C.ar    1  UNL1        0.0255
     31 C          67.5763   92.7117   10.0890 C.ar    1  UNL1        0.0037
     32 C          67.2769   94.1142    9.6494 C.ar    1  UNL1        0.0207
     33 C          66.5953   95.0651   10.5882 C.ar    1  UNL1        0.0994
     34 N          66.2130   94.6133   11.9665 N.ar    1  UNL1       -0.2376
@<TRIPOS>BOND
     1    22    23    2
     2    23     1    1
     3     1     2    1
     4     1     3    1
     5     3     4    1
     6     4    24    1
     7    24    25    1
     8    25    26    2
     9    25    27    1
    10    27    28    1
    11    28    29    1
    12    29    30   ar
    13    30    31   ar
    14    31    32   ar
    15    32    33   ar
    16    33    34   ar
    17     4     5    1
    18     5     6    1
    19     5     7    1
    20     7     8    1
    21     7     9    1
    22     9    10    1
    23    11    10    1
    24    11    12    1
    25    12    13    1
    26    13    14    1
    27    14    15    2
    28    16    14    1
    29    11    17    1
    30    17    18    1
    31    17    19    1
    32    19    20    1
    33    19     1    1
    34    34    29   ar
    35    16     5    1
    36    16    11    1
    37    20    21    1
@<TRIPOS>MOLECULE
*****
 34 37 0 0 0
SMALL
GASTEIGER

@<TRIPOS>ATOM
      1 C          63.3620   87.5875   12.8103 C.3     1  UNL1        0.0468
      2 C          64.3353   86.5463   14.3512 C.3     1  UNL1        0.0069
      3 C          63.2041   88.5015   12.5472 C.3     1  UNL1        0.0500
      4 C          62.7425   88.9311   11.8176 C.3     1  UNL1        0.1694
      5 C          62.0042   89.1523   10.6590 C.3     1  UNL1        0.0435
      6 C          61.4827   90.2834    9.8233 C.3     1  UNL1        0.0040
      7 C          62.1937   88.4104   10.9684 C.3     1  UNL1        0.0038
      8 C          63.2629   90.1199   12.6106 C.3     1  UNL1        0.0001
      9 C          62.3951   87.6444   11.2971 C.3     1  UNL1        0.0001
     10 C          62.1542   87.0408   10.9308 C.3     1  UNL1        0.0005
     11 C          61.8792   86.3873   10.5122 C.3     1  UNL1        0.0093
     12 C          61.2229   85.4941    9.5015 C.3     1  UNL1        0.0082
     13 C          60.5717   86.3641    8.4676 C.3     1  UNL1        0.0645
     14 C          60.8255   87.7950    8.8393 C.2     1  UNL1        0.1504
     15 O          60.3540   89.0000    8.0805 O.2     1  UNL1       -0.2961
     16 C          61.6336   87.8094   10.1029 C.3     1  UNL1        0.0610
     17 C          62.6288   86.4175   11.6842 C.3     1  UNL1        0.0276
     18 C          62.5295   84.2228   11.5676 C.3     1  UNL1        0.0025
     19 C          63.1237   86.7242   12.4528 C.3     1  UNL1        0.1141
     20 O          63.8886   85.0651   13.6785 O.3     1  UNL1       -0.3841
     21 H          64.3773   85.4218   14.4367 H       1  UNL1        0.2103
     22 C          63.9857   89.2376   15.5913 C.2     1  UNL1       -0.0048
     23 C          64.4178   88.3681   14.4479 C.2     1  UNL1       -0.0243
     24 O          62.8418   91.1257   11.9342 O.3     1  UNL1       -0.4516
     25 C          64.1641   91.8077   12.1244 C.2     1  UNL1        0.3284
     26 O          64.7008   92.0309   13.5072 O.2     1  UNL1       -0.2491
     27 C          64.9498   92.2664   10.9319 C.3     1  UNL1        0.1728
     28 S          66.3076   92.8763   11.1177 S.3     1  UNL1       -0.0830
     29 C          66.6266   94.2017   10.4918 C.ar    1  UNL1        0.1072
     30 C          67.2429   94.2568    9.1254 C.ar    1  UNL1        0.0255
     31 C          67.5619   95.5822    8.4995 C.ar    1  UNL1        0.0037
     32 C          67.2644   96.8523    9.2400 C.ar    1  UNL1        0.0207
     33 C          66.6481   96.7971   10.6064 C.ar    1  UNL1        0.0994
     34 N          66.3291   95.4718   11.2323 N.ar    1  UNL1       -0.2376
@<TRIPOS>BOND
     1    22    23    2
     2    23     1    1
     3     1     2    1
     4     1     3    1
     5     3     4    1
     6     4    24    1
     7    24    25    1
     8    25    26    2
     9    25    27    1
    10    27    28    1
    11    28    29    1
    12    29    30   ar
    13    30    31   ar
    14    31    32   ar
    15    32    33   ar
    16    33    34   ar
    17     4     5    1
    18     5     6    1
    19     5     7    1
    20     7     8    1
    21     7     9    1
    22     9    10    1
    23    11    10    1
    24    11    12    1
    25    12    13    1
    26    13    14    1
    27    14    15    2
    28    16    14    1
    29    11    17    1
    30    17    18    1
    31    17    19    1
    32    19    20    1
    33    19     1    1
    34    34    29   ar
    35    16     5    1
    36    16    11    1
    37    20    21    1
@<TRIPOS>MOLECULE
*****
 34 37 0 0 0
SMALL
GASTEIGER

@<TRIPOS>ATOM
      1 C          62.6870   88.2498   11.5996 C.3     1  UNL1        0.0468
      2 C          61.9356   89.6419   10.2201 C.3     1  UNL1        0.0069
      3 C          63.1641   88.2523   12.4375 C.3     1  UNL1        0.0500
      4 C          63.4898   87.5724   13.0388 C.3     1  UNL1        0.1694
      5 C          63.7887   86.3424   13.6166 C.3     1  UNL1        0.0435
      6 C          64.4646   85.7722   14.8282 C.3     1  UNL1        0.0040
      7 C          63.3854   86.4480   12.9037 C.3     1  UNL1        0.0038
      8 C          63.9202   88.8517   13.7397 C.3     1  UNL1        0.0001
      9 C          62.9675   86.5675   12.1645 C.3     1  UNL1        0.0001
     10 C          62.7429   85.9589   11.7962 C.3     1  UNL1        0.0005
     11 C          62.5035   85.2751   11.4050 C.3     1  UNL1        0.0093
     12 C          62.2497   83.8476   11.0205 C.3     1  UNL1        0.0082
     13 C          62.8350   82.9694   12.0863 C.3     1  UNL1        0.0645
     14 C          63.4506   83.8541   13.1296 C.2     1  UNL1        0.1504
     15 O          64.1486   83.3945   14.3752 O.2     1  UNL1       -0.2961
     16 C          63.2457   85.2791   12.7085 C.3     1  UNL1        0.0610
     17 C          62.3214   86.6023   11.0282 C.3     1  UNL1        0.0276
     18 C          61.3012   85.7550    9.2728 C.3     1  UNL1        0.0025
     19 C          62.3379   87.5662   11.0158 C.3     1  UNL1        0.1141
     20 O          61.3466   88.4025    9.2388 O.3     1  UNL1       -0.3841
     21 H          61.3885   89.3711    9.2709 H       1  UNL1        0.2103
     22 C          63.9242   91.2999   11.4910 C.2     1  UNL1       -0.0048
     23 C          62.7824   90.3452   11.6773 C.2     1  UNL1       -0.0243
     24 O          64.5100   88.4197   14.7942 O.3     1  UNL1       -0.4516
     25 C          63.7719   89.3429   15.7176 C.2     1  UNL1        0.3284
     26 O          63.1545   88.8090   16.9761 O.2     1  UNL1       -0.2491
     27 C          63.6511   90.7999   15.3826 C.3     1  UNL1        0.1728
     28 S          64.4873   91.8091   16.1123 S.3     1  UNL1       -0.0830
     29 C          65.8803   92.1087   15.6434 C.ar    1  UNL1        0.1072
     30 C          66.3761   91.5336   14.3498 C.ar    1  UNL1        0.0255
     31 C          67.7692   91.8332   13.8810 C.ar    1  UNL1        0.0037
     32 C          68.6663   92.7078   14.7057 C.ar    1  UNL1        0.0207
     33 C          68.1704   93.2829   15.9993 C.ar    1  UNL1        0.0994
     34 N          66.7774   92.9833   16.4682 N.ar    1  UNL1       -0.2376
@<TRIPOS>BOND
     1    22    23    2
     2    23     1    1
     3     1     2    1
     4     1     3    1
     5     3     4    1
     6     4    24    1
     7    24    25    1
     8    25    26    2
     9    25    27    1
    10    27    28    1
    11    28    29    1
    12    29    30   ar
    13    30    31   ar
    14    31    32   ar
    15    32    33   ar
    16    33    34   ar
    17     4     5    1
    18     5     6    1
    19     5     7    1
    20     7     8    1
    21     7     9    1
    22     9    10    1
    23    11    10    1
    24    11    12    1
    25    12    13    1
    26    13    14    1
    27    14    15    2
    28    16    14    1
    29    11    17    1
    30    17    18    1
    31    17    19    1
    32    19    20    1
    33    19     1    1
    34    34    29   ar
    35    16     5    1
    36    16    11    1
    37    20    21    1
@<TRIPOS>MOLECULE
*****
 34 37 0 0 0
SMALL
GASTEIGER

@<TRIPOS>ATOM
      1 C          63.3243   87.3035   12.7558 C.3     1  UNL1        0.0468
      2 C          64.3194   86.2141   14.2486 C.3     1  UNL1        0.0069
      3 C          63.1340   88.2244   12.5426 C.3     1  UNL1        0.0500
      4 C          62.6645   88.6769   11.8321 C.3     1  UNL1        0.1694
      5 C          61.9318   88.9355   10.6778 C.3     1  UNL1        0.0435
      6 C          61.3764   90.0917    9.9003 C.3     1  UNL1        0.0040
      7 C          62.1463   88.1850   10.9474 C.3     1  UNL1        0.0038
      8 C          63.1290   89.8376   12.6982 C.3     1  UNL1        0.0001
      9 C          62.3736   87.4097   11.2350 C.3     1  UNL1        0.0001
     10 C          62.1606   86.8192   10.8319 C.3     1  UNL1        0.0005
     11 C          61.9161   86.1806   10.3732 C.3     1  UNL1        0.0093
     12 C          61.3069   85.3221    9.3047 C.3     1  UNL1        0.0082
     13 C          60.6344   86.2242    8.3127 C.3     1  UNL1        0.0645
     14 C          60.8280   87.6402    8.7681 C.2     1  UNL1        0.1504
     15 O          60.3188   88.8676    8.0723 O.2     1  UNL1       -0.2961
     16 C          61.6201   87.6133   10.0416 C.3     1  UNL1        0.0610
     17 C          62.6503   86.1726   11.5553 C.3     1  UNL1        0.0276
     18 C          62.6378   83.9858   11.3135 C.3     1  UNL1        0.0025
     19 C          63.1239   86.4535   12.3468 C.3     1  UNL1        0.1141
     20 O          63.9385   84.7577   13.4872 O.3     1  UNL1       -0.3841
     21 H          64.4041   85.0890   14.2710 H       1  UNL1        0.2103
     22 C          63.8336   88.7195   15.6852 C.2     1  UNL1       -0.0048
     23 C          64.3298   88.0292   14.4493 C.2     1  UNL1       -0.0243
     24 O          62.6770   90.8635   12.0740 O.3     1  UNL1       -0.4516
     25 C          63.8935   91.5509   12.6193 C.2     1  UNL1        0.3284
     26 O          64.0535   91.7296   14.1001 O.2     1  UNL1       -0.2491
     27 C          64.9501   92.0597   11.6841 C.3     1  UNL1        0.1728
     28 S          65.8548   93.1773   12.1113 S.3     1  UNL1       -0.0830
     29 C          66.7884   92.9855   13.2697 C.ar    1  UNL1        0.1072
     30 C          67.8287   91.9059   13.2236 C.ar    1  UNL1        0.0255
     31 C          68.7622   91.7141   14.3820 C.ar    1  UNL1        0.0037
     32 C          68.6554   92.6019   15.5863 C.ar    1  UNL1        0.0207
     33 C          67.6151   93.6816   15.6323 C.ar    1  UNL1        0.0994
     34 N          66.6815   93.8734   14.4740 N.ar    1  UNL1       -0.2376
@<TRIPOS>BOND
     1    22    23    2
     2    23     1    1
     3     1     2    1
     4     1     3    1
     5     3     4    1
     6     4    24    1
     7    24    25    1
     8    25    26    2
     9    25    27    1
    10    27    28    1
    11    28    29    1
    12    29    30   ar
    13    30    31   ar
    14    31    32   ar
    15    32    33   ar
    16    33    34   ar
    17     4     5    1
    18     5     6    1
    19     5     7    1
    20     7     8    1
    21     7     9    1
    22     9    10    1
    23    11    10    1
    24    11    12    1
    25    12    13    1
    26    13    14    1
    27    14    15    2
    28    16    14    1
    29    11    17    1
    30    17    18    1
    31    17    19    1
    32    19    20    1
    33    19     1    1
    34    34    29   ar
    35    16     5    1
    36    16    11    1
    37    20    21    1
@<TRIPOS>MOLECULE
*****
 34 37 0 0 0
SMALL
GASTEIGER

@<TRIPOS>ATOM
      1 C          63.3692   86.9271   12.8382 C.3     1  UNL1        0.0468
      2 C          64.1950   85.4559   14.0871 C.3     1  UNL1        0.0069
      3 C          63.3191   87.8890   12.7947 C.3     1  UNL1        0.0500
      4 C          62.9203   88.5244   12.1888 C.3     1  UNL1        0.1694
      5 C          62.2301   89.0884   11.1203 C.3     1  UNL1        0.0435
      6 C          61.8521   90.4331   10.5735 C.3     1  UNL1        0.0040
      7 C          62.3301   88.2787   11.2482 C.3     1  UNL1        0.0038
      8 C          63.5581   89.4320   13.2292 C.3     1  UNL1        0.0001
      9 C          62.4391   87.4399   11.3891 C.3     1  UNL1        0.0001
     10 C          62.1378   86.9680   10.8961 C.3     1  UNL1        0.0005
     11 C          61.7979   86.4639   10.3409 C.3     1  UNL1        0.0093
     12 C          61.0617   85.9075    9.1583 C.3     1  UNL1        0.0082
     13 C          60.5288   87.0601    8.3599 C.3     1  UNL1        0.0645
     14 C          60.9356   88.3288    9.0490 C.2     1  UNL1        0.1504
     15 O          60.6144   89.7215    8.5936 O.2     1  UNL1       -0.2961
     16 C          61.7199   87.9604   10.2733 C.3     1  UNL1        0.0610
     17 C          62.5274   86.1385   11.4804 C.3     1  UNL1        0.0276
     18 C          62.1843   84.0552   10.8617 C.3     1  UNL1        0.0025
     19 C          63.0413   86.2019   12.2937 C.3     1  UNL1        0.1141
     20 O          63.5956   84.2297   13.0956 O.3     1  UNL1       -0.3841
     21 H          64.1091   84.3446   13.9104 H       1  UNL1        0.2103
     22 C          64.0625   87.5052   16.0054 C.2     1  UNL1       -0.0048
     23 C          64.4798   87.1852   14.6006 C.2     1  UNL1       -0.0243
     24 O          63.2634   90.6075   12.8075 O.3     1  UNL1       -0.4516
     25 C          64.0135   90.9003   14.0729 C.2     1  UNL1        0.3284
     26 O          63.2636   91.1979   15.3375 O.2     1  UNL1       -0.2491
     27 C          65.5134   90.8955   14.0740 C.3     1  UNL1        0.1728
     28 S          66.2677   92.1911   14.0227 S.3     1  UNL1       -0.0830
     29 C          66.2071   93.0460   12.7916 C.ar    1  UNL1        0.1072
     30 C          66.0114   92.4113   11.4467 C.ar    1  UNL1        0.0255
     31 C          65.9508   93.2663   10.2156 C.ar    1  UNL1        0.0037
     32 C          66.0859   94.7558   10.3296 C.ar    1  UNL1        0.0207
     33 C          66.2816   95.3905   11.6745 C.ar    1  UNL1        0.0994
     34 N          66.3422   94.5356   12.9056 N.ar    1  UNL1       -0.2376
@<TRIPOS>BOND
     1    22    23    2
     2    23     1    1
     3     1     2    1
     4     1     3    1
     5     3     4    1
     6     4    24    1
     7    24    25    1
     8    25    26    2
     9    25    27    1
    10    27    28    1
    11    28    29    1
    12    29    30   ar
    13    30    31   ar
    14    31    32   ar
    15    32    33   ar
    16    33    34   ar
    17     4     5    1
    18     5     6    1
    19     5     7    1
    20     7     8    1
    21     7     9    1
    22     9    10    1
    23    11    10    1
    24    11    12    1
    25    12    13    1
    26    13    14    1
    27    14    15    2
    28    16    14    1
    29    11    17    1
    30    17    18    1
    31    17    19    1
    32    19    20    1
    33    19     1    1
    34    34    29   ar
    35    16     5    1
    36    16    11    1
    37    20    21    1
@<TRIPOS>MOLECULE
*****
 34 37 0 0 0
SMALL
GASTEIGER

@<TRIPOS>ATOM
      1 C          63.2251   86.1034   12.6544 C.3     1  UNL1        0.0468
      2 C          63.3379   84.0263   12.9350 C.3     1  UNL1        0.0069
      3 C          63.5197   86.9068   13.0988 C.3     1  UNL1        0.0500
      4 C          63.4393   87.8516   12.9235 C.3     1  UNL1        0.1694
      5 C          63.1151   89.0711   12.3369 C.3     1  UNL1        0.0435
      6 C          63.2954   90.5429   12.5634 C.3     1  UNL1        0.0040
      7 C          62.9106   88.3293   12.0370 C.3     1  UNL1        0.0038
      8 C          64.2324   87.8338   14.2211 C.3     1  UNL1        0.0001
      9 C          62.7028   87.5548   11.7332 C.3     1  UNL1        0.0001
     10 C          62.3133   87.5298   11.0975 C.3     1  UNL1        0.0005
     11 C          61.8836   87.5234   10.3952 C.3     1  UNL1        0.0093
     12 C          61.1378   87.9253    9.1573 C.3     1  UNL1        0.0082
     13 C          61.1352   89.4234    9.0836 C.3     1  UNL1        0.0645
     14 C          61.8793   89.9475   10.2759 C.2     1  UNL1        0.1504
     15 O          62.1188   91.3923   10.6006 O.2     1  UNL1       -0.2961
     16 C          62.3418   88.7733   11.0865 C.3     1  UNL1        0.0610
     17 C          62.3198   86.4446   11.1584 C.3     1  UNL1        0.0276
     18 C          61.3422   85.2162    9.6170 C.3     1  UNL1        0.0025
     19 C          62.7281   85.9119   11.8506 C.3     1  UNL1        0.1141
     20 O          62.4636   83.7533   11.5183 O.3     1  UNL1       -0.3841
     21 H          62.8895   83.2609   12.2374 H       1  UNL1        0.2103
     22 C          65.5930   84.8645   14.5790 C.2     1  UNL1       -0.0048
     23 C          64.1494   85.0460   14.2144 C.2     1  UNL1       -0.0243
     24 O          64.4168   89.0800   14.4647 O.3     1  UNL1       -0.4516
     25 C          63.7443   89.2989   15.7875 C.2     1  UNL1        0.3284
     26 O          63.0057   88.1732   16.4487 O.2     1  UNL1       -0.2491
     27 C          63.8103   90.6434   16.4491 C.3     1  UNL1        0.1728
     28 S          64.2593   91.8426   15.6677 S.3     1  UNL1       -0.0830
     29 C          65.7209   92.0733   15.4218 C.ar    1  UNL1        0.1072
     30 C          66.3368   91.6583   14.1185 C.ar    1  UNL1        0.0255
     31 C          67.7984   91.8890   13.8725 C.ar    1  UNL1        0.0037
     32 C          68.6441   92.5347   14.9299 C.ar    1  UNL1        0.0207
     33 C          68.0282   92.9497   16.2331 C.ar    1  UNL1        0.0994
     34 N          66.5666   92.7190   16.4791 N.ar    1  UNL1       -0.2376
@<TRIPOS>BOND
     1    22    23    2
     2    23     1    1
     3     1     2    1
     4     1     3    1
     5     3     4    1
     6     4    24    1
     7    24    25    1
     8    25    26    2
     9    25    27    1
    10    27    28    1
    11    28    29    1
    12    29    30   ar
    13    30    31   ar
    14    31    32   ar
    15    32    33   ar
    16    33    34   ar
    17     4     5    1
    18     5     6    1
    19     5     7    1
    20     7     8    1
    21     7     9    1
    22     9    10    1
    23    11    10    1
    24    11    12    1
    25    12    13    1
    26    13    14    1
    27    14    15    2
    28    16    14    1
    29    11    17    1
    30    17    18    1
    31    17    19    1
    32    19    20    1
    33    19     1    1
    34    34    29   ar
    35    16     5    1
    36    16    11    1
    37    20    21    1
@<TRIPOS>MOLECULE
*****
 34 37 0 0 0
SMALL
GASTEIGER

@<TRIPOS>ATOM
      1 C          63.3871   88.5054   12.7370 C.3     1  UNL1        0.0468
      2 C          64.3787   89.8991   13.9537 C.3     1  UNL1        0.0069
      3 C          63.2300   87.5544   12.7126 C.3     1  UNL1        0.0500
      4 C          62.7594   86.9560   12.1207 C.3     1  UNL1        0.1694
      5 C          62.0044   86.4521   11.0661 C.3     1  UNL1        0.0435
      6 C          61.4761   85.1476   10.5472 C.3     1  UNL1        0.0040
      7 C          62.1946   87.2478   11.1777 C.3     1  UNL1        0.0038
      8 C          63.2986   86.0029   13.1762 C.3     1  UNL1        0.0001
      9 C          62.3971   88.0719   11.3018 C.3     1  UNL1        0.0001
     10 C          62.1472   88.5648   10.8008 C.3     1  UNL1        0.0005
     11 C          61.8621   89.0930   10.2371 C.3     1  UNL1        0.0093
     12 C          61.1853   89.7053    9.0467 C.3     1  UNL1        0.0082
     13 C          60.5228   88.6042    8.2730 C.3     1  UNL1        0.0645
     14 C          60.7901   87.3114    8.9852 C.2     1  UNL1        0.1504
     15 O          60.3134   85.9547    8.5585 O.2     1  UNL1       -0.2961
     16 C          61.6178   87.6135   10.1991 C.3     1  UNL1        0.0610
     17 C          62.6301   89.3568   11.3672 C.3     1  UNL1        0.0276
     18 C          62.5170   91.4532   10.7091 C.3     1  UNL1        0.0025
     19 C          63.1385   89.2521   12.1797 C.3     1  UNL1        0.1141
     20 O          63.9135   91.1653   12.9406 O.3     1  UNL1       -0.3841
     21 H          64.4159   91.0095   13.7556 H       1  UNL1        0.2103
     22 C          64.0441   87.6980   15.8615 C.2     1  UNL1       -0.0048
     23 C          64.4725   88.1590   14.4999 C.2     1  UNL1       -0.0243
     24 O          62.8725   84.8597   12.7787 O.3     1  UNL1       -0.4516
     25 C          62.8944   84.5332   14.2426 C.2     1  UNL1        0.3284
     26 O          61.6888   84.8103   15.0909 O.2     1  UNL1       -0.2491
     27 C          64.1219   83.9297   14.8581 C.3     1  UNL1        0.1728
     28 S          64.7017   82.6674   14.2920 S.3     1  UNL1       -0.0830
     29 C          64.1894   82.1243   12.9909 C.ar    1  UNL1        0.1072
     30 C          63.1822   81.0128   12.9868 C.ar    1  UNL1        0.0255
     31 C          62.6700   80.4697   11.6858 C.ar    1  UNL1        0.0037
     32 C          63.1649   81.0382   10.3889 C.ar    1  UNL1        0.0207
     33 C          64.1721   82.1497   10.3930 C.ar    1  UNL1        0.0994
     34 N          64.6844   82.6928   11.6941 N.ar    1  UNL1       -0.2376
@<TRIPOS>BOND
     1    22    23    2
     2    23     1    1
     3     1     2    1
     4     1     3    1
     5     3     4    1
     6     4    24    1
     7    24    25    1
     8    25    26    2
     9    25    27    1
    10    27    28    1
    11    28    29    1
    12    29    30   ar
    13    30    31   ar
    14    31    32   ar
    15    32    33   ar
    16    33    34   ar
    17     4     5    1
    18     5     6    1
    19     5     7    1
    20     7     8    1
    21     7     9    1
    22     9    10    1
    23    11    10    1
    24    11    12    1
    25    12    13    1
    26    13    14    1
    27    14    15    2
    28    16    14    1
    29    11    17    1
    30    17    18    1
    31    17    19    1
    32    19    20    1
    33    19     1    1
    34    34    29   ar
    35    16     5    1
    36    16    11    1
    37    20    21    1
@<TRIPOS>MOLECULE
*****
 34 37 0 0 0
SMALL
GASTEIGER

@<TRIPOS>ATOM
      1 C          62.5915   86.2897   10.8434 C.3     1  UNL1        0.0468
      2 C          61.8746   86.4158    8.8747 C.3     1  UNL1        0.0069
      3 C          62.8366   86.8867   11.5598 C.3     1  UNL1        0.0500
      4 C          63.1655   86.7737   12.4592 C.3     1  UNL1        0.1694
      5 C          63.6109   86.2071   13.6495 C.3     1  UNL1        0.0435
      6 C          64.0941   86.6146   15.0098 C.3     1  UNL1        0.0040
      7 C          63.3781   85.7848   12.9791 C.3     1  UNL1        0.0038
      8 C          63.0840   88.2875   12.3366 C.3     1  UNL1        0.0001
      9 C          63.1346   85.3548   12.2783 C.3     1  UNL1        0.0001
     10 C          63.1631   84.6099   12.3067 C.3     1  UNL1        0.0005
     11 C          63.2018   83.7890   12.3581 C.3     1  UNL1        0.0093
     12 C          63.4094   82.3822   12.8355 C.3     1  UNL1        0.0082
     13 C          63.9190   82.4416   14.2451 C.3     1  UNL1        0.0645
     14 C          64.0264   83.8851   14.6388 C.2     1  UNL1        0.1504
     15 O          64.4947   84.4045   15.9657 O.2     1  UNL1       -0.2961
     16 C          63.5832   84.7178   13.4725 C.3     1  UNL1        0.0610
     17 C          62.7936   84.5756   11.2851 C.3     1  UNL1        0.0276
     18 C          62.4689   82.6561   10.2601 C.3     1  UNL1        0.0025
     19 C          62.5737   85.3323   10.7296 C.3     1  UNL1        0.1141
     20 O          61.8649   84.7346    8.7345 O.3     1  UNL1       -0.3841
     21 H          61.6570   85.5267    8.2146 H       1  UNL1        0.2103
     22 C          60.8856   88.8146    9.5941 C.2     1  UNL1       -0.0048
     23 C          62.1441   88.0091    9.7256 C.2     1  UNL1       -0.0243
     24 O          63.4901   88.6931   13.4842 O.3     1  UNL1       -0.4516
     25 C          62.7221   89.9095   13.0596 C.2     1  UNL1        0.3284
     26 O          61.2654   89.7961   12.7204 O.2     1  UNL1       -0.2491
     27 C          63.4107   91.2393   12.9741 C.3     1  UNL1        0.1728
     28 S          64.8928   91.3035   12.7519 S.3     1  UNL1       -0.0830
     29 C          65.7971   91.7685   13.8547 C.ar    1  UNL1        0.1072
     30 C          67.2758   91.8643   13.6218 C.ar    1  UNL1        0.0255
     31 C          68.1801   92.3293   14.7246 C.ar    1  UNL1        0.0037
     32 C          67.6056   92.6983   16.0602 C.ar    1  UNL1        0.0207
     33 C          66.1269   92.6024   16.2931 C.ar    1  UNL1        0.0994
     34 N          65.2226   92.1375   15.1903 N.ar    1  UNL1       -0.2376
@<TRIPOS>BOND
     1    22    23    2
     2    23     1    1
     3     1     2    1
     4     1     3    1
     5     3     4    1
     6     4    24    1
     7    24    25    1
     8    25    26    2
     9    25    27    1
    10    27    28    1
    11    28    29    1
    12    29    30   ar
    13    30    31   ar
    14    31    32   ar
    15    32    33   ar
    16    33    34   ar
    17     4     5    1
    18     5     6    1
    19     5     7    1
    20     7     8    1
    21     7     9    1
    22     9    10    1
    23    11    10    1
    24    11    12    1
    25    12    13    1
    26    13    14    1
    27    14    15    2
    28    16    14    1
    29    11    17    1
    30    17    18    1
    31    17    19    1
    32    19    20    1
    33    19     1    1
    34    34    29   ar
    35    16     5    1
    36    16    11    1
    37    20    21    1
@<TRIPOS>MOLECULE
*****
 34 37 0 0 0
SMALL
GASTEIGER

@<TRIPOS>ATOM
      1 C          61.1846   86.3435    8.5473 C.3     1  UNL1        0.0468
      2 C          60.4259   85.6335    6.7235 C.3     1  UNL1        0.0069
      3 C          61.7906   86.0506    9.2377 C.3     1  UNL1        0.0500
      4 C          62.1088   86.4224   10.0685 C.3     1  UNL1        0.1694
      5 C          62.3157   87.2723   11.1507 C.3     1  UNL1        0.0435
      6 C          63.0938   87.3387   12.4314 C.3     1  UNL1        0.0040
      7 C          61.8186   87.4294   10.5104 C.3     1  UNL1        0.0038
      8 C          62.8344   85.0868   10.0176 C.3     1  UNL1        0.0001
      9 C          61.3048   87.5839    9.8414 C.3     1  UNL1        0.0001
     10 C          60.9343   88.2315    9.8369 C.3     1  UNL1        0.0005
     11 C          60.5345   88.9511    9.8505 C.3     1  UNL1        0.0093
     12 C          60.0122   90.3035   10.2355 C.3     1  UNL1        0.0082
     13 C          60.6322   90.6835   11.5475 C.3     1  UNL1        0.0645
     14 C          61.5377   89.5660   11.9732 C.2     1  UNL1        0.1504
     15 O          62.3593   89.5262   13.2276 O.2     1  UNL1       -0.2961
     16 C          61.4773   88.4953   10.9244 C.3     1  UNL1        0.0610
     17 C          60.4895   87.9486    8.8864 C.3     1  UNL1        0.0276
     18 C          59.0756   89.2813    7.8543 C.3     1  UNL1        0.0025
     19 C          60.6456   87.1298    8.4018 C.3     1  UNL1        0.1141
     20 O          59.5044   87.0324    6.5234 O.3     1  UNL1       -0.3841
     21 H          59.6934   86.1942    6.0733 H       1  UNL1        0.2103
     22 C          62.5128   84.1900    6.4392 C.2     1  UNL1       -0.0048
     23 C          61.5995   84.5273    7.5803 C.2     1  UNL1       -0.0243
     24 O          63.5226   85.0898   11.1006 O.3     1  UNL1       -0.4516
     25 C          63.4273   83.6048   10.9125 C.2     1  UNL1        0.3284
     26 O          63.9976   82.9667    9.6806 O.2     1  UNL1       -0.2491
     27 C          62.7618   82.7577   11.9562 C.3     1  UNL1        0.1728
     28 S          63.4278   82.5407   13.2827 S.3     1  UNL1       -0.0830
     29 C          63.4967   83.6595   14.2794 C.ar    1  UNL1        0.1072
     30 C          64.6889   84.5695   14.3041 C.ar    1  UNL1        0.0255
     31 C          64.7578   85.6884   15.3008 C.ar    1  UNL1        0.0037
     32 C          63.6345   85.8972   16.2727 C.ar    1  UNL1        0.0207
     33 C          62.4423   84.9873   16.2480 C.ar    1  UNL1        0.0994
     34 N          62.3734   83.8684   15.2513 N.ar    1  UNL1       -0.2376
@<TRIPOS>BOND
     1    22    23    2
     2    23     1    1
     3     1     2    1
     4     1     3    1
     5     3     4    1
     6     4    24    1
     7    24    25    1
     8    25    26    2
     9    25    27    1
    10    27    28    1
    11    28    29    1
    12    29    30   ar
    13    30    31   ar
    14    31    32   ar
    15    32    33   ar
    16    33    34   ar
    17     4     5    1
    18     5     6    1
    19     5     7    1
    20     7     8    1
    21     7     9    1
    22     9    10    1
    23    11    10    1
    24    11    12    1
    25    12    13    1
    26    13    14    1
    27    14    15    2
    28    16    14    1
    29    11    17    1
    30    17    18    1
    31    17    19    1
    32    19    20    1
    33    19     1    1
    34    34    29   ar
    35    16     5    1
    36    16    11    1
    37    20    21    1
