@<TRIPOS>MOLECULE
*****
 42 46 0 0 0
SMALL
GASTEIGER

@<TRIPOS>ATOM
      1 C          62.3734   90.0816   11.2228 C.2     1  UNL1        0.2411
      2 O          61.7805   90.9342   12.3051 O.2     1  UNL1       -0.2733
      3 N          63.5515   90.5777   10.4379 N.am    1  UNL1       -0.2966
      4 H          63.9407   90.0181    9.7276 H       1  UNL1        0.1499
      5 C          61.7882   88.7328   10.9253 C.3     1  UNL1        0.1554
      6 C          63.0530   87.5981   12.8907 C.2     1  UNL1        0.4017
      7 O          64.0992   88.6716   12.8372 O.2     1  UNL1       -0.2264
      8 N          61.8975   87.6287   11.9346 N.am    1  UNL1       -0.2637
      9 H          61.2108   86.9241   11.9697 H       1  UNL1        0.1532
     10 O          63.1622   86.4939   13.9000 O.3     1  UNL1       -0.4419
     11 C          62.8200   84.9034   12.5388 C.3     1  UNL1        0.0437
     12 C          63.8812   85.2252   13.5488 C.3     1  UNL1        0.1378
     13 C          64.9424   85.5469   14.5589 C.3     1  UNL1        0.0437
     14 C          64.6002   83.9564   13.1976 C.3     1  UNL1        0.0437
     15 C          61.0939   88.4883    9.6183 C.3     1  UNL1        0.0563
     16 C          61.3502   87.2205    8.8585 C.ar    1  UNL1       -0.0072
     17 C          62.5775   86.4081    9.1475 C.ar    1  UNL1        0.0263
     18 C          62.8338   85.1404    8.3877 C.ar    1  UNL1        0.1399
     19 F          64.0612   84.3279    8.6767 F       1  UNL1       -0.2042
     20 C          61.8628   84.6852    7.3390 C.ar    1  UNL1        0.0305
     21 C          60.6355   85.4977    7.0500 C.ar    1  UNL1        0.0134
     22 C          60.3792   86.7653    7.8098 C.ar    1  UNL1        0.0539
     23 CL         59.1518   87.5779    7.5208 Cl      1  UNL1       -0.0826
     24 C          64.1367   91.9264   10.7354 C.3     1  UNL1        0.1543
     25 C          65.0270   92.1111   11.9284 C.ar    1  UNL1        0.1417
     26 N          64.6155   91.9777   13.3647 N.ar    1  UNL1       -0.2276
     27 C          65.8192   92.2459   14.2186 C.ar    1  UNL1        0.1167
     28 C          66.0124   92.2563   15.7060 C.ar    1  UNL1        0.0238
     29 C          67.3611   92.5659   16.2849 C.ar    1  UNL1        0.0223
     30 C          68.5166   92.8650   15.3764 C.ar    1  UNL1        0.1006
     31 N          68.3233   92.8546   13.8890 N.ar    1  UNL1       -0.2252
     32 C          66.9747   92.5450   13.3101 C.ar    1  UNL1        0.1626
     33 N          66.4850   92.4617   11.8947 N.ar    1  UNL1       -0.2990
     34 C          67.3088   92.6891   10.6620 C.3     1  UNL1        0.0898
     35 C          68.2861   92.4343    9.5529 C.3     1  UNL1        0.0273
     36 C          68.0367   91.3795   10.5898 C.3     1  UNL1        0.0273
     37 C          66.8672   94.0777   10.3060 C.ar    1  UNL1       -0.0037
     38 C          67.1190   94.6147    8.9283 C.ar    1  UNL1       -0.0025
     39 C          66.6774   96.0034    8.5722 C.ar    1  UNL1       -0.0003
     40 C          65.9838   96.8549    9.5940 C.ar    1  UNL1       -0.0000
     41 C          65.7320   96.3178   10.9718 C.ar    1  UNL1       -0.0003
     42 C          66.1737   94.9292   11.3277 C.ar    1  UNL1       -0.0025
@<TRIPOS>BOND
     1    11    12    1
     2    12    13    1
     3    12    14    1
     4    12    10    1
     5    10     6    1
     6     6     7    2
     7     6     8   am
     8     8     5    1
     9     5    15    1
    10    15    16    1
    11    16    17   ar
    12    17    18   ar
    13    18    19    1
    14    18    20   ar
    15    20    21   ar
    16    21    22   ar
    17    22    23    1
    18     5     1    1
    19     1     2    2
    20     1     3   am
    21     3    24    1
    22    24    25    1
    23    25    26   ar
    24    26    27   ar
    25    27    28   ar
    26    28    29   ar
    27    29    30   ar
    28    30    31   ar
    29    31    32   ar
    30    32    33   ar
    31    33    34    1
    32    34    37    1
    33    37    38   ar
    34    38    39   ar
    35    39    40   ar
    36    40    41   ar
    37    41    42   ar
    38    34    35    1
    39    35    36    1
    40    22    16   ar
    41    33    25   ar
    42    36    34    1
    43    32    27   ar
    44    42    37   ar
    45     8     9    1
    46     3     4    1
@<TRIPOS>MOLECULE
*****
 42 46 0 0 0
SMALL
GASTEIGER

@<TRIPOS>ATOM
      1 C          62.7676   89.6239   12.1090 C.2     1  UNL1        0.2411
      2 O          62.4765   90.4347   13.3369 O.2     1  UNL1       -0.2733
      3 N          63.6040   90.2047   11.0075 N.am    1  UNL1       -0.2966
      4 H          63.7950   89.6725   10.2016 H       1  UNL1        0.1499
      5 C          62.2222   88.2322   11.9824 C.3     1  UNL1        0.1554
      6 C          63.8144   86.9539   13.5889 C.2     1  UNL1        0.4017
      7 O          63.6467   88.0348   14.6153 O.2     1  UNL1       -0.2264
      8 N          63.1022   87.0526   12.2724 N.am    1  UNL1       -0.2637
      9 H          63.2123   86.3432   11.5987 H       1  UNL1        0.1532
     10 O          64.6944   85.7742   13.8789 O.3     1  UNL1       -0.4419
     11 C          64.3158   83.8583   13.0508 C.3     1  UNL1        0.0437
     12 C          64.0937   84.4980   14.3892 C.3     1  UNL1        0.1378
     13 C          63.8717   85.1378   15.7276 C.3     1  UNL1        0.0437
     14 C          63.4931   83.2218   14.8996 C.3     1  UNL1        0.0437
     15 C          60.7969   88.0203   11.5659 C.3     1  UNL1        0.0563
     16 C          60.4449   87.9414   10.1098 C.ar    1  UNL1       -0.0072
     17 C          60.4822   86.6208    9.3997 C.ar    1  UNL1        0.0263
     18 C          60.1301   86.5420    7.9437 C.ar    1  UNL1        0.1399
     19 F          60.1674   85.2212    7.2335 F       1  UNL1       -0.2042
     20 C          59.7408   87.7838    7.1980 C.ar    1  UNL1        0.0305
     21 C          59.7035   89.1045    7.9081 C.ar    1  UNL1        0.0134
     22 C          60.0555   89.1833    9.3641 C.ar    1  UNL1        0.0539
     23 CL         60.0182   90.5040   10.0743 Cl      1  UNL1       -0.0826
     24 C          64.1494   91.5962   11.1340 C.3     1  UNL1        0.1543
     25 C          65.0764   91.9388   12.2624 C.ar    1  UNL1        0.1417
     26 N          64.7552   91.8512   13.7250 N.ar    1  UNL1       -0.2276
     27 C          65.9677   92.2874   14.4929 C.ar    1  UNL1        0.1167
     28 C          66.2351   92.4055   15.9641 C.ar    1  UNL1        0.0238
     29 C          67.5733   92.8807   16.4473 C.ar    1  UNL1        0.0223
     30 C          68.6439   93.2379   15.4593 C.ar    1  UNL1        0.1006
     31 N          68.3764   93.1198   13.9881 N.ar    1  UNL1       -0.2252
     32 C          67.0383   92.6445   13.5049 C.ar    1  UNL1        0.1626
     33 N          66.4875   92.4291   12.1264 N.ar    1  UNL1       -0.2990
     34 C          67.2193   92.6630   10.8381 C.3     1  UNL1        0.0898
     35 C          68.1079   92.4115    9.6561 C.3     1  UNL1        0.0273
     36 C          67.9249   91.3468   10.6967 C.3     1  UNL1        0.0273
     37 C          66.7678   94.0602   10.5320 C.ar    1  UNL1       -0.0037
     38 C          66.2316   94.9322   11.6283 C.ar    1  UNL1       -0.0025
     39 C          65.7801   96.3296   11.3222 C.ar    1  UNL1       -0.0003
     40 C          65.8649   96.8548    9.9197 C.ar    1  UNL1       -0.0000
     41 C          66.4011   95.9827    8.8233 C.ar    1  UNL1       -0.0003
     42 C          66.8526   94.5855    9.1295 C.ar    1  UNL1       -0.0025
@<TRIPOS>BOND
     1    11    12    1
     2    12    13    1
     3    12    14    1
     4    12    10    1
     5    10     6    1
     6     6     7    2
     7     6     8   am
     8     8     5    1
     9     5    15    1
    10    15    16    1
    11    16    17   ar
    12    17    18   ar
    13    18    19    1
    14    18    20   ar
    15    20    21   ar
    16    21    22   ar
    17    22    23    1
    18     5     1    1
    19     1     2    2
    20     1     3   am
    21     3    24    1
    22    24    25    1
    23    25    26   ar
    24    26    27   ar
    25    27    28   ar
    26    28    29   ar
    27    29    30   ar
    28    30    31   ar
    29    31    32   ar
    30    32    33   ar
    31    33    34    1
    32    34    37    1
    33    37    38   ar
    34    38    39   ar
    35    39    40   ar
    36    40    41   ar
    37    41    42   ar
    38    34    35    1
    39    35    36    1
    40    22    16   ar
    41    33    25   ar
    42    36    34    1
    43    32    27   ar
    44    42    37   ar
    45     8     9    1
    46     3     4    1
@<TRIPOS>MOLECULE
*****
 42 46 0 0 0
SMALL
GASTEIGER

@<TRIPOS>ATOM
      1 C          62.9180   89.4558   11.9660 C.2     1  UNL1        0.2411
      2 O          62.4250   90.1346   13.2094 O.2     1  UNL1       -0.2733
      3 N          63.7736   90.2076   10.9900 N.am    1  UNL1       -0.2966
      4 H          64.0972   89.7620   10.1739 H       1  UNL1        0.1499
      5 C          62.5552   88.0250   11.6985 C.3     1  UNL1        0.1554
      6 C          60.1996   87.8366   10.6189 C.2     1  UNL1        0.4017
      7 O          59.5780   88.3424   11.8868 O.2     1  UNL1       -0.2264
      8 N          61.6883   87.6779   10.5247 N.am    1  UNL1       -0.2637
      9 H          62.0963   87.3460    9.6925 H       1  UNL1        0.1532
     10 O          59.3327   87.4896    9.4451 O.3     1  UNL1       -0.4419
     11 C          59.0793   87.0142    7.3933 C.3     1  UNL1        0.0437
     12 C          59.4791   88.2424    8.1560 C.3     1  UNL1        0.1378
     13 C          59.8788   89.4706    8.9186 C.3     1  UNL1        0.0437
     14 C          59.6255   88.9952    6.8668 C.3     1  UNL1        0.0437
     15 C          63.0595   86.9414   12.6049 C.3     1  UNL1        0.0563
     16 C          63.0823   85.5181   12.1318 C.ar    1  UNL1       -0.0072
     17 C          63.2685   85.2150   10.6747 C.ar    1  UNL1        0.0263
     18 C          63.2913   83.7917   10.2017 C.ar    1  UNL1        0.1399
     19 F          63.4775   83.4885    8.7445 F       1  UNL1       -0.2042
     20 C          63.1277   82.6716   11.1859 C.ar    1  UNL1        0.0305
     21 C          62.9414   82.9747   12.6430 C.ar    1  UNL1        0.0134
     22 C          62.9187   84.3980   13.1160 C.ar    1  UNL1        0.0539
     23 CL         62.7324   84.7012   14.5732 Cl      1  UNL1       -0.0826
     24 C          64.1364   91.6383   11.2575 C.3     1  UNL1        0.1543
     25 C          65.0986   91.9750   12.3578 C.ar    1  UNL1        0.1417
     26 N          64.8131   91.9109   13.8290 N.ar    1  UNL1       -0.2276
     27 C          66.0533   92.3312   14.5606 C.ar    1  UNL1        0.1167
     28 C          66.3606   92.4608   16.0230 C.ar    1  UNL1        0.0238
     29 C          67.7199   92.9144   16.4664 C.ar    1  UNL1        0.0223
     30 C          68.7718   93.2383   15.4474 C.ar    1  UNL1        0.1006
     31 N          68.4645   93.1086   13.9850 N.ar    1  UNL1       -0.2252
     32 C          67.1053   92.6551   13.5416 C.ar    1  UNL1        0.1626
     33 N          66.5152   92.4349   12.1802 N.ar    1  UNL1       -0.2990
     34 C          67.2184   92.6390   10.8710 C.3     1  UNL1        0.0898
     35 C          68.0697   92.3552    9.6691 C.3     1  UNL1        0.0273
     36 C          67.8893   91.3052   10.7250 C.3     1  UNL1        0.0273
     37 C          66.7918   94.0435   10.5623 C.ar    1  UNL1       -0.0037
     38 C          66.1825   94.8953   11.6361 C.ar    1  UNL1       -0.0025
     39 C          65.7559   96.2999   11.3274 C.ar    1  UNL1       -0.0003
     40 C          65.9387   96.8525    9.9449 C.ar    1  UNL1       -0.0000
     41 C          66.5480   96.0006    8.8711 C.ar    1  UNL1       -0.0003
     42 C          66.9746   94.5960    9.1798 C.ar    1  UNL1       -0.0025
@<TRIPOS>BOND
     1    11    12    1
     2    12    13    1
     3    12    14    1
     4    12    10    1
     5    10     6    1
     6     6     7    2
     7     6     8   am
     8     8     5    1
     9     5    15    1
    10    15    16    1
    11    16    17   ar
    12    17    18   ar
    13    18    19    1
    14    18    20   ar
    15    20    21   ar
    16    21    22   ar
    17    22    23    1
    18     5     1    1
    19     1     2    2
    20     1     3   am
    21     3    24    1
    22    24    25    1
    23    25    26   ar
    24    26    27   ar
    25    27    28   ar
    26    28    29   ar
    27    29    30   ar
    28    30    31   ar
    29    31    32   ar
    30    32    33   ar
    31    33    34    1
    32    34    37    1
    33    37    38   ar
    34    38    39   ar
    35    39    40   ar
    36    40    41   ar
    37    41    42   ar
    38    34    35    1
    39    35    36    1
    40    22    16   ar
    41    33    25   ar
    42    36    34    1
    43    32    27   ar
    44    42    37   ar
    45     8     9    1
    46     3     4    1
@<TRIPOS>MOLECULE
*****
 42 46 0 0 0
SMALL
GASTEIGER

@<TRIPOS>ATOM
      1 C          63.9257   91.0939   12.6062 C.2     1  UNL1        0.2411
      2 O          63.3909   90.6410   13.9323 O.2     1  UNL1       -0.2733
      3 N          63.3046   90.5927   11.3362 N.am    1  UNL1       -0.2966
      4 H          63.6557   90.8899   10.4658 H       1  UNL1        0.1499
      5 C          65.0818   92.0482   12.5500 C.3     1  UNL1        0.1554
      6 C          66.2998   92.0612   14.8449 C.2     1  UNL1        0.4017
      7 O          65.0608   92.5964   15.4994 O.2     1  UNL1       -0.2264
      8 N          66.3103   91.7871   13.3701 N.am    1  UNL1       -0.2637
      9 H          67.1235   91.4359   12.9405 H       1  UNL1        0.1532
     10 O          67.5283   91.8002   15.6649 O.3     1  UNL1       -0.4419
     11 C          69.4163   91.9342   16.6228 C.3     1  UNL1        0.0437
     12 C          68.5395   92.8893   15.8686 C.3     1  UNL1        0.1378
     13 C          67.6626   93.8444   15.1143 C.3     1  UNL1        0.0437
     14 C          69.5507   93.9783   16.0723 C.3     1  UNL1        0.0437
     15 C          65.0092   93.2634   11.6737 C.3     1  UNL1        0.0563
     16 C          66.1433   93.5889   10.7474 C.ar    1  UNL1       -0.0072
     17 C          66.9901   92.4872   10.1825 C.ar    1  UNL1        0.0263
     18 C          68.1241   92.8127    9.2562 C.ar    1  UNL1        0.1399
     19 F          68.9710   91.7110    8.6913 F       1  UNL1       -0.2042
     20 C          68.4113   94.2399    8.8948 C.ar    1  UNL1        0.0305
     21 C          67.5644   95.3416    9.4596 C.ar    1  UNL1        0.0134
     22 C          66.4304   95.0161   10.3859 C.ar    1  UNL1        0.0539
     23 CL         65.5835   96.1178   10.9508 Cl      1  UNL1       -0.0826
     24 C          62.1487   89.6385   11.3923 C.3     1  UNL1        0.1543
     25 C          62.3895   88.1840   11.6691 C.ar    1  UNL1        0.1417
     26 N          63.3515   87.6255   12.6753 N.ar    1  UNL1       -0.2276
     27 C          63.2671   86.1290   12.6165 C.ar    1  UNL1        0.1167
     28 C          63.9828   85.0527   13.3775 C.ar    1  UNL1        0.0238
     29 C          63.6842   83.6100   13.0960 C.ar    1  UNL1        0.0223
     30 C          62.6699   83.2436   12.0534 C.ar    1  UNL1        0.1006
     31 N          61.9542   84.3199   11.2923 N.ar    1  UNL1       -0.2252
     32 C          62.2529   85.7627   11.5739 C.ar    1  UNL1        0.1626
     33 N          61.7104   87.0327   10.9884 N.ar    1  UNL1       -0.2990
     34 C          60.6714   87.1337    9.9113 C.3     1  UNL1        0.0898
     35 C          59.4070   87.5235    9.2046 C.3     1  UNL1        0.0273
     36 C          59.6616   88.0002   10.6038 C.3     1  UNL1        0.0273
     37 C          61.3203   86.3023    8.8446 C.ar    1  UNL1       -0.0037
     38 C          62.7973   86.0447    8.8894 C.ar    1  UNL1       -0.0025
     39 C          63.4462   85.2132    7.8227 C.ar    1  UNL1       -0.0003
     40 C          62.6180   84.6395    6.7114 C.ar    1  UNL1       -0.0000
     41 C          61.1409   84.8972    6.6667 C.ar    1  UNL1       -0.0003
     42 C          60.4921   85.7286    7.7333 C.ar    1  UNL1       -0.0025
@<TRIPOS>BOND
     1    11    12    1
     2    12    13    1
     3    12    14    1
     4    12    10    1
     5    10     6    1
     6     6     7    2
     7     6     8   am
     8     8     5    1
     9     5    15    1
    10    15    16    1
    11    16    17   ar
    12    17    18   ar
    13    18    19    1
    14    18    20   ar
    15    20    21   ar
    16    21    22   ar
    17    22    23    1
    18     5     1    1
    19     1     2    2
    20     1     3   am
    21     3    24    1
    22    24    25    1
    23    25    26   ar
    24    26    27   ar
    25    27    28   ar
    26    28    29   ar
    27    29    30   ar
    28    30    31   ar
    29    31    32   ar
    30    32    33   ar
    31    33    34    1
    32    34    37    1
    33    37    38   ar
    34    38    39   ar
    35    39    40   ar
    36    40    41   ar
    37    41    42   ar
    38    34    35    1
    39    35    36    1
    40    22    16   ar
    41    33    25   ar
    42    36    34    1
    43    32    27   ar
    44    42    37   ar
    45     8     9    1
    46     3     4    1
@<TRIPOS>MOLECULE
*****
 42 46 0 0 0
SMALL
GASTEIGER

@<TRIPOS>ATOM
      1 C          60.6850   89.6124   10.6605 C.2     1  UNL1        0.2411
      2 O          59.9698   90.9252   10.7827 O.2     1  UNL1       -0.2733
      3 N          61.6906   89.2069   11.6970 N.am    1  UNL1       -0.2966
      4 H          62.1600   88.3452   11.6168 H       1  UNL1        0.1499
      5 C          60.3947   88.7051    9.5018 C.3     1  UNL1        0.1554
      6 C          59.3700   88.7095    7.1143 C.2     1  UNL1        0.4017
      7 O          58.4353   87.6064    7.5134 O.2     1  UNL1       -0.2264
      8 N          60.3498   89.2589    8.1085 N.am    1  UNL1       -0.2637
      9 H          60.9633   89.9829    7.8465 H       1  UNL1        0.1532
     10 O          59.3251   89.2633    5.7210 O.3     1  UNL1       -0.4419
     11 C          57.5468   90.4125    5.8504 C.3     1  UNL1        0.0437
     12 C          58.9751   90.7047    5.4978 C.3     1  UNL1        0.1378
     13 C          60.4035   90.9969    5.1451 C.3     1  UNL1        0.0437
     14 C          58.6251   92.1461    5.2746 C.3     1  UNL1        0.0437
     15 C          60.1493   87.2440    9.7364 C.3     1  UNL1        0.0563
     16 C          61.2285   86.2452    9.4401 C.ar    1  UNL1       -0.0072
     17 C          61.5645   85.9036    8.0187 C.ar    1  UNL1        0.0263
     18 C          62.6437   84.9048    7.7224 C.ar    1  UNL1        0.1399
     19 F          62.9797   84.5631    6.3010 F       1  UNL1       -0.2042
     20 C          63.3869   84.2477    8.8475 C.ar    1  UNL1        0.0305
     21 C          63.0509   84.5893   10.2689 C.ar    1  UNL1        0.0134
     22 C          61.9717   85.5881   10.5652 C.ar    1  UNL1        0.0539
     23 CL         61.6357   85.9298   11.9866 Cl      1  UNL1       -0.0826
     24 C          61.9809   90.1141   12.8557 C.3     1  UNL1        0.1543
     25 C          63.3796   90.5998   13.0958 C.ar    1  UNL1        0.1417
     26 N          64.2694   91.2601   12.0848 N.ar    1  UNL1       -0.2276
     27 C          65.5739   91.5789   12.7533 C.ar    1  UNL1        0.1167
     28 C          66.8270   92.2312   12.2491 C.ar    1  UNL1        0.0238
     29 C          67.9964   92.4202   13.1692 C.ar    1  UNL1        0.0223
     30 C          67.9128   91.9570   14.5934 C.ar    1  UNL1        0.1006
     31 N          66.6597   91.3047   15.0976 N.ar    1  UNL1       -0.2252
     32 C          65.4902   91.1157   14.1775 C.ar    1  UNL1        0.1626
     33 N          64.1341   90.5106   14.3892 N.ar    1  UNL1       -0.2990
     34 C          63.6223   89.9199   15.6695 C.3     1  UNL1        0.0898
     35 C          63.0558   89.8364   17.0559 C.3     1  UNL1        0.0273
     36 C          63.2868   91.1750   16.4196 C.3     1  UNL1        0.0273
     37 C          63.7801   88.4599   15.3642 C.ar    1  UNL1       -0.0037
     38 C          63.4579   87.4356   16.4116 C.ar    1  UNL1       -0.0025
     39 C          63.6156   85.9755   16.1063 C.ar    1  UNL1       -0.0003
     40 C          64.0956   85.5397   14.7536 C.ar    1  UNL1       -0.0000
     41 C          64.4178   86.5641   13.7062 C.ar    1  UNL1       -0.0003
     42 C          64.2600   88.0241   14.0115 C.ar    1  UNL1       -0.0025
@<TRIPOS>BOND
     1    11    12    1
     2    12    13    1
     3    12    14    1
     4    12    10    1
     5    10     6    1
     6     6     7    2
     7     6     8   am
     8     8     5    1
     9     5    15    1
    10    15    16    1
    11    16    17   ar
    12    17    18   ar
    13    18    19    1
    14    18    20   ar
    15    20    21   ar
    16    21    22   ar
    17    22    23    1
    18     5     1    1
    19     1     2    2
    20     1     3   am
    21     3    24    1
    22    24    25    1
    23    25    26   ar
    24    26    27   ar
    25    27    28   ar
    26    28    29   ar
    27    29    30   ar
    28    30    31   ar
    29    31    32   ar
    30    32    33   ar
    31    33    34    1
    32    34    37    1
    33    37    38   ar
    34    38    39   ar
    35    39    40   ar
    36    40    41   ar
    37    41    42   ar
    38    34    35    1
    39    35    36    1
    40    22    16   ar
    41    33    25   ar
    42    36    34    1
    43    32    27   ar
    44    42    37   ar
    45     8     9    1
    46     3     4    1
@<TRIPOS>MOLECULE
*****
 42 46 0 0 0
SMALL
GASTEIGER

@<TRIPOS>ATOM
      1 C          62.5625   88.3748   12.1949 C.2     1  UNL1        0.2411
      2 O          61.5396   89.4710   12.2381 O.2     1  UNL1       -0.2733
      3 N          63.8308   88.5009   12.9859 N.am    1  UNL1       -0.2966
      4 H          64.5022   87.7814   12.9575 H       1  UNL1        0.1499
      5 C          62.3172   87.1525   11.3607 C.3     1  UNL1        0.1554
      6 C          62.5856   85.0565   12.8723 C.2     1  UNL1        0.4017
      7 O          64.0170   85.4247   13.1287 O.2     1  UNL1       -0.2264
      8 N          61.7358   85.9205   11.9883 N.am    1  UNL1       -0.2637
      9 H          60.7963   85.6788   11.8201 H       1  UNL1        0.1532
     10 O          62.0042   83.8245   13.4999 O.3     1  UNL1       -0.4419
     11 C          62.4944   82.2679   12.1448 C.3     1  UNL1        0.0437
     12 C          62.8184   82.5672   13.5784 C.3     1  UNL1        0.1378
     13 C          63.1423   82.8665   15.0121 C.3     1  UNL1        0.0437
     14 C          63.6326   81.3098   13.6569 C.3     1  UNL1        0.0437
     15 C          62.6534   87.1623    9.8989 C.3     1  UNL1        0.0563
     16 C          61.6692   86.6309    8.8994 C.ar    1  UNL1       -0.0072
     17 C          62.0695   85.5263    7.9669 C.ar    1  UNL1        0.0263
     18 C          61.0853   84.9949    6.9675 C.ar    1  UNL1        0.1399
     19 F          61.4856   83.8903    6.0349 F       1  UNL1       -0.2042
     20 C          59.7008   85.5682    6.9005 C.ar    1  UNL1        0.0305
     21 C          59.3005   86.6729    7.8329 C.ar    1  UNL1        0.0134
     22 C          60.2847   87.2042    8.8324 C.ar    1  UNL1        0.0539
     23 CL         59.8844   88.3089    9.7649 Cl      1  UNL1       -0.0826
     24 C          64.0761   89.7231   13.8201 C.3     1  UNL1        0.1543
     25 C          64.5595   90.9876   13.1739 C.ar    1  UNL1        0.1417
     26 N          64.4433   91.3345   11.7192 N.ar    1  UNL1       -0.2276
     27 C          65.0559   92.6885   11.5152 C.ar    1  UNL1        0.1167
     28 C          65.2271   93.5385   10.2913 C.ar    1  UNL1        0.0238
     29 C          65.8931   94.8784   10.3960 C.ar    1  UNL1        0.0223
     30 C          66.3880   95.3683   11.7246 C.ar    1  UNL1        0.1006
     31 N          66.2168   94.5182   12.9485 N.ar    1  UNL1       -0.2252
     32 C          65.5507   93.1783   12.8438 C.ar    1  UNL1        0.1626
     33 N          65.2439   92.1271   13.8689 N.ar    1  UNL1       -0.2990
     34 C          65.5652   92.2022   15.3322 C.3     1  UNL1        0.0898
     35 C          65.3745   92.1834   16.8199 C.3     1  UNL1        0.0273
     36 C          64.2029   91.9579   15.9109 C.3     1  UNL1        0.0273
     37 C          67.0389   92.4726   15.2618 C.ar    1  UNL1       -0.0037
     38 C          67.9028   91.6806   14.3256 C.ar    1  UNL1       -0.0025
     39 C          69.3766   91.9510   14.2552 C.ar    1  UNL1       -0.0003
     40 C          69.9863   93.0134   15.1210 C.ar    1  UNL1       -0.0000
     41 C          69.1224   93.8053   16.0572 C.ar    1  UNL1       -0.0003
     42 C          67.6486   93.5349   16.1276 C.ar    1  UNL1       -0.0025
@<TRIPOS>BOND
     1    11    12    1
     2    12    13    1
     3    12    14    1
     4    12    10    1
     5    10     6    1
     6     6     7    2
     7     6     8   am
     8     8     5    1
     9     5    15    1
    10    15    16    1
    11    16    17   ar
    12    17    18   ar
    13    18    19    1
    14    18    20   ar
    15    20    21   ar
    16    21    22   ar
    17    22    23    1
    18     5     1    1
    19     1     2    2
    20     1     3   am
    21     3    24    1
    22    24    25    1
    23    25    26   ar
    24    26    27   ar
    25    27    28   ar
    26    28    29   ar
    27    29    30   ar
    28    30    31   ar
    29    31    32   ar
    30    32    33   ar
    31    33    34    1
    32    34    37    1
    33    37    38   ar
    34    38    39   ar
    35    39    40   ar
    36    40    41   ar
    37    41    42   ar
    38    34    35    1
    39    35    36    1
    40    22    16   ar
    41    33    25   ar
    42    36    34    1
    43    32    27   ar
    44    42    37   ar
    45     8     9    1
    46     3     4    1
@<TRIPOS>MOLECULE
*****
 42 46 0 0 0
SMALL
GASTEIGER

@<TRIPOS>ATOM
      1 C          62.7816   87.7841   12.8994 C.2     1  UNL1        0.2411
      2 O          61.8402   88.8773   12.4890 O.2     1  UNL1       -0.2733
      3 N          63.8673   88.0641   13.8959 N.am    1  UNL1       -0.2966
      4 H          64.4852   87.3466   14.1653 H       1  UNL1        0.1499
      5 C          62.6375   86.4108   12.3134 C.3     1  UNL1        0.1554
      6 C          61.5295   86.4795    9.9644 C.2     1  UNL1        0.4017
      7 O          62.7389   87.1758    9.4143 O.2     1  UNL1       -0.2264
      8 N          61.4788   86.0970   11.4140 N.am    1  UNL1       -0.2637
      9 H          60.6850   85.6400   11.7750 H       1  UNL1        0.1532
     10 O          60.3709   86.1657    9.0650 O.3     1  UNL1       -0.4419
     11 C          59.7433   86.3368    7.0459 C.3     1  UNL1        0.0437
     12 C          59.7501   87.2504    8.2355 C.3     1  UNL1        0.1378
     13 C          59.7570   88.1640    9.4251 C.3     1  UNL1        0.0437
     14 C          59.1294   88.3351    7.4059 C.3     1  UNL1        0.0437
     15 C          63.6520   85.3514   12.6269 C.3     1  UNL1        0.0563
     16 C          63.2405   83.9097   12.6751 C.ar    1  UNL1       -0.0072
     17 C          63.3509   83.0567   11.4461 C.ar    1  UNL1        0.0263
     18 C          62.9394   81.6151   11.4944 C.ar    1  UNL1        0.1399
     19 F          63.0498   80.7621   10.2654 F       1  UNL1       -0.2042
     20 C          62.4174   81.0265   12.7715 C.ar    1  UNL1        0.0305
     21 C          62.3070   81.8794   14.0004 C.ar    1  UNL1        0.0134
     22 C          62.7185   83.3210   13.9522 C.ar    1  UNL1        0.0539
     23 CL         62.6081   84.1740   15.1811 Cl      1  UNL1       -0.0826
     24 C          64.0115   89.4374   14.4819 C.3     1  UNL1        0.1543
     25 C          64.4785   90.5744   13.6222 C.ar    1  UNL1        0.1417
     26 N          64.3298   90.6726   12.1328 N.ar    1  UNL1       -0.2276
     27 C          64.9356   91.9718   11.6911 C.ar    1  UNL1        0.1167
     28 C          65.0785   92.6040   10.3385 C.ar    1  UNL1        0.0238
     29 C          65.7444   93.9412   10.2022 C.ar    1  UNL1        0.0223
     30 C          66.2674   94.6460   11.4186 C.ar    1  UNL1        0.1006
     31 N          66.1245   94.0138   12.7713 N.ar    1  UNL1       -0.2252
     32 C          65.4586   92.6766   12.9075 C.ar    1  UNL1        0.1626
     33 N          65.1761   91.8130   14.1010 N.ar    1  UNL1       -0.2990
     34 C          65.5292   92.1320   15.5235 C.3     1  UNL1        0.0898
     35 C          65.3738   92.3506   16.9993 C.3     1  UNL1        0.0273
     36 C          64.1879   91.9537   16.1712 C.3     1  UNL1        0.0273
     37 C          66.9930   92.4211   15.3700 C.ar    1  UNL1       -0.0037
     38 C          67.8280   91.5910   14.4408 C.ar    1  UNL1       -0.0025
     39 C          69.2919   91.8801   14.2872 C.ar    1  UNL1       -0.0003
     40 C          69.9206   92.9994   15.0630 C.ar    1  UNL1       -0.0000
     41 C          69.0856   93.8296   15.9923 C.ar    1  UNL1       -0.0003
     42 C          67.6218   93.5404   16.1458 C.ar    1  UNL1       -0.0025
@<TRIPOS>BOND
     1    11    12    1
     2    12    13    1
     3    12    14    1
     4    12    10    1
     5    10     6    1
     6     6     7    2
     7     6     8   am
     8     8     5    1
     9     5    15    1
    10    15    16    1
    11    16    17   ar
    12    17    18   ar
    13    18    19    1
    14    18    20   ar
    15    20    21   ar
    16    21    22   ar
    17    22    23    1
    18     5     1    1
    19     1     2    2
    20     1     3   am
    21     3    24    1
    22    24    25    1
    23    25    26   ar
    24    26    27   ar
    25    27    28   ar
    26    28    29   ar
    27    29    30   ar
    28    30    31   ar
    29    31    32   ar
    30    32    33   ar
    31    33    34    1
    32    34    37    1
    33    37    38   ar
    34    38    39   ar
    35    39    40   ar
    36    40    41   ar
    37    41    42   ar
    38    34    35    1
    39    35    36    1
    40    22    16   ar
    41    33    25   ar
    42    36    34    1
    43    32    27   ar
    44    42    37   ar
    45     8     9    1
    46     3     4    1
@<TRIPOS>MOLECULE
*****
 42 46 0 0 0
SMALL
GASTEIGER

@<TRIPOS>ATOM
      1 C          61.0146   88.0117   10.2027 C.2     1  UNL1        0.2411
      2 O          60.1618   87.5351   11.3409 O.2     1  UNL1       -0.2733
      3 N          62.0213   87.0889    9.5822 N.am    1  UNL1       -0.2966
      4 H          62.5810   87.4018    8.8352 H       1  UNL1        0.1499
      5 C          60.8609   89.4112    9.6851 C.3     1  UNL1        0.1554
      6 C          59.5106   88.9024    7.5245 C.2     1  UNL1        0.4017
      7 O          58.6668   87.9212    8.2829 O.2     1  UNL1       -0.2264
      8 N          60.6077   89.6474    8.2256 N.am    1  UNL1       -0.2637
      9 H          61.1615   90.2915    7.7279 H       1  UNL1        0.1532
     10 O          59.2575   89.1386    6.0650 O.3     1  UNL1       -0.4419
     11 C          57.5299   90.3586    5.9010 C.3     1  UNL1        0.0437
     12 C          58.9824   90.5264    5.5666 C.3     1  UNL1        0.1378
     13 C          60.4350   90.6942    5.2322 C.3     1  UNL1        0.0437
     14 C          58.7073   91.9142    5.0681 C.3     1  UNL1        0.0437
     15 C          60.9603   90.5744   10.6269 C.3     1  UNL1        0.0563
     16 C          62.1048   90.6617   11.5927 C.ar    1  UNL1       -0.0072
     17 C          61.9737   90.0733   12.9662 C.ar    1  UNL1        0.0263
     18 C          63.1181   90.1607   13.9319 C.ar    1  UNL1        0.1399
     19 F          62.9871   89.5722   15.3054 F       1  UNL1       -0.2042
     20 C          64.3937   90.8365   13.5240 C.ar    1  UNL1        0.0305
     21 C          64.5247   91.4249   12.1506 C.ar    1  UNL1        0.0134
     22 C          63.3803   91.3375   11.1849 C.ar    1  UNL1        0.0539
     23 CL         63.5113   91.9260    9.8113 Cl      1  UNL1       -0.0826
     24 C          62.1751   85.6895   10.0998 C.3     1  UNL1        0.1543
     25 C          62.7891   85.4516   11.4475 C.ar    1  UNL1        0.1417
     26 N          62.9174   86.4619   12.5488 N.ar    1  UNL1       -0.2276
     27 C          63.5902   85.7963   13.7125 C.ar    1  UNL1        0.1167
     28 C          63.9782   86.3011   15.0706 C.ar    1  UNL1        0.0238
     29 C          64.6536   85.3842   16.0468 C.ar    1  UNL1        0.0223
     30 C          64.9411   83.9624   15.6648 C.ar    1  UNL1        0.1006
     31 N          64.5531   83.4576   14.3067 N.ar    1  UNL1       -0.2252
     32 C          63.8777   84.3745   13.3305 C.ar    1  UNL1        0.1626
     33 N          63.3825   84.1615   11.9307 N.ar    1  UNL1       -0.2990
     34 C          63.4662   82.8828   11.1509 C.3     1  UNL1        0.0898
     35 C          63.7833   81.9291   10.0375 C.3     1  UNL1        0.0273
     36 C          64.1672   83.3743    9.9191 C.3     1  UNL1        0.0273
     37 C          62.7944   81.9473   12.1118 C.ar    1  UNL1       -0.0037
     38 C          63.0178   80.4684   11.9989 C.ar    1  UNL1       -0.0025
     39 C          62.3459   79.5328   12.9598 C.ar    1  UNL1       -0.0003
     40 C          61.4506   80.0762   14.0336 C.ar    1  UNL1       -0.0000
     41 C          61.2272   81.5552   14.1466 C.ar    1  UNL1       -0.0003
     42 C          61.8991   82.4908   13.1857 C.ar    1  UNL1       -0.0025
@<TRIPOS>BOND
     1    11    12    1
     2    12    13    1
     3    12    14    1
     4    12    10    1
     5    10     6    1
     6     6     7    2
     7     6     8   am
     8     8     5    1
     9     5    15    1
    10    15    16    1
    11    16    17   ar
    12    17    18   ar
    13    18    19    1
    14    18    20   ar
    15    20    21   ar
    16    21    22   ar
    17    22    23    1
    18     5     1    1
    19     1     2    2
    20     1     3   am
    21     3    24    1
    22    24    25    1
    23    25    26   ar
    24    26    27   ar
    25    27    28   ar
    26    28    29   ar
    27    29    30   ar
    28    30    31   ar
    29    31    32   ar
    30    32    33   ar
    31    33    34    1
    32    34    37    1
    33    37    38   ar
    34    38    39   ar
    35    39    40   ar
    36    40    41   ar
    37    41    42   ar
    38    34    35    1
    39    35    36    1
    40    22    16   ar
    41    33    25   ar
    42    36    34    1
    43    32    27   ar
    44    42    37   ar
    45     8     9    1
    46     3     4    1
@<TRIPOS>MOLECULE
*****
 42 46 0 0 0
SMALL
GASTEIGER

@<TRIPOS>ATOM
      1 C          60.5915   87.3102    8.6328 C.2     1  UNL1        0.2411
      2 O          61.0894   86.3691    7.5763 O.2     1  UNL1       -0.2733
      3 N          60.6906   86.9322   10.0810 N.am    1  UNL1       -0.2966
      4 H          60.3638   87.5499   10.7745 H       1  UNL1        0.1499
      5 C          59.9945   88.6294    8.2412 C.3     1  UNL1        0.1554
      6 C          61.6244   89.9633    9.7624 C.2     1  UNL1        0.4017
      7 O          62.6048   88.8294    9.7063 O.2     1  UNL1       -0.2264
      8 N          60.3192   89.8633    9.0299 N.am    1  UNL1       -0.2637
      9 H          59.6758   90.6075    9.0667 H       1  UNL1        0.1532
     10 O          61.9492   91.1972   10.5511 O.3     1  UNL1       -0.4419
     11 C          63.9366   91.9382   10.5200 C.3     1  UNL1        0.0437
     12 C          63.0988   91.1905   11.5145 C.3     1  UNL1        0.1378
     13 C          62.2611   90.4428   12.5090 C.3     1  UNL1        0.0437
     14 C          64.2486   91.1838   12.4779 C.3     1  UNL1        0.0437
     15 C          59.0727   88.7147    7.0609 C.3     1  UNL1        0.0563
     16 C          59.2069   89.8456    6.0847 C.ar    1  UNL1       -0.0072
     17 C          60.5635   90.2538    5.5916 C.ar    1  UNL1        0.0263
     18 C          60.6976   91.3847    4.6154 C.ar    1  UNL1        0.1399
     19 F          62.0542   91.7929    4.1223 F       1  UNL1       -0.2042
     20 C          59.4752   92.1073    4.1322 C.ar    1  UNL1        0.0305
     21 C          58.1187   91.6991    4.6252 C.ar    1  UNL1        0.0134
     22 C          57.9845   90.5683    5.6014 C.ar    1  UNL1        0.0539
     23 CL         56.6279   90.1600    6.0945 Cl      1  UNL1       -0.0826
     24 C          61.2876   85.6130   10.4727 C.3     1  UNL1        0.1543
     25 C          62.3117   85.5485   11.5668 C.ar    1  UNL1        0.1417
     26 N          62.5954   86.6237   12.5734 N.ar    1  UNL1       -0.2276
     27 C          63.6910   86.1371   13.4751 C.ar    1  UNL1        0.1167
     28 C          64.3812   86.7692   14.6473 C.ar    1  UNL1        0.0238
     29 C          65.4647   86.0253   15.3701 C.ar    1  UNL1        0.0223
     30 C          65.8581   84.6494   14.9207 C.ar    1  UNL1        0.1006
     31 N          65.1680   84.0173   13.7485 N.ar    1  UNL1       -0.2252
     32 C          64.0844   84.7612   13.0257 C.ar    1  UNL1        0.1626
     33 N          63.2320   84.3974   11.8463 N.ar    1  UNL1       -0.2990
     34 C          63.2897   83.1087   11.0808 C.3     1  UNL1        0.0898
     35 C          63.5395   82.1464    9.9576 C.3     1  UNL1        0.0273
     36 C          63.8628   83.6009    9.7848 C.3     1  UNL1        0.0273
     37 C          62.7366   82.1689   12.1107 C.ar    1  UNL1       -0.0037
     38 C          62.0280   82.7106   13.3167 C.ar    1  UNL1       -0.0025
     39 C          61.4749   81.7708   14.3467 C.ar    1  UNL1       -0.0003
     40 C          61.6304   80.2893   14.1707 C.ar    1  UNL1       -0.0000
     41 C          62.3391   79.7476   12.9647 C.ar    1  UNL1       -0.0003
     42 C          62.8922   80.6874   11.9347 C.ar    1  UNL1       -0.0025
@<TRIPOS>BOND
     1    11    12    1
     2    12    13    1
     3    12    14    1
     4    12    10    1
     5    10     6    1
     6     6     7    2
     7     6     8   am
     8     8     5    1
     9     5    15    1
    10    15    16    1
    11    16    17   ar
    12    17    18   ar
    13    18    19    1
    14    18    20   ar
    15    20    21   ar
    16    21    22   ar
    17    22    23    1
    18     5     1    1
    19     1     2    2
    20     1     3   am
    21     3    24    1
    22    24    25    1
    23    25    26   ar
    24    26    27   ar
    25    27    28   ar
    26    28    29   ar
    27    29    30   ar
    28    30    31   ar
    29    31    32   ar
    30    32    33   ar
    31    33    34    1
    32    34    37    1
    33    37    38   ar
    34    38    39   ar
    35    39    40   ar
    36    40    41   ar
    37    41    42   ar
    38    34    35    1
    39    35    36    1
    40    22    16   ar
    41    33    25   ar
    42    36    34    1
    43    32    27   ar
    44    42    37   ar
    45     8     9    1
    46     3     4    1
