@<TRIPOS>MOLECULE
*****
 40 45 0 0 0
SMALL
GASTEIGER

@<TRIPOS>ATOM
      1 C          59.0412   89.3830    6.8957 C.ar    1  UNL1        0.2400
      2 N          58.3527   89.4798    5.5666 N.ar    1  UNL1       -0.2090
      3 C          58.8176   90.4827    4.5524 C.ar    1  UNL1        0.1021
      4 C          59.9399   91.5413    4.5420 C.ar    1  UNL1        0.0207
      5 C          59.8774   90.7660    5.8245 C.ar    1  UNL1        0.0221
      6 C          60.1945   90.2888    7.2108 C.ar    1  UNL1        0.1178
      7 N          60.8570   90.1615    8.5506 N.pl3   1  UNL1       -0.2104
      8 S          61.7929   90.3980    9.6986 S.O2    1  UNL1        0.0737
      9 O          60.7886   89.3134    9.9535 O.2     1  UNL1       -0.1499
     10 O          61.9220   89.7631   11.0514 O.2     1  UNL1       -0.1499
     11 C          63.1751   91.2024   10.5793 C.ar    1  UNL1        0.1253
     12 C          63.3989   90.6445   11.9535 C.ar    1  UNL1        0.0202
     13 C          64.4970   91.1927   12.8158 C.ar    1  UNL1        0.0015
     14 C          65.3713   92.2989   12.3038 C.ar    1  UNL1        0.0046
     15 C          65.1474   92.8568   10.9296 C.ar    1  UNL1        0.0547
     16 C          64.0493   92.3086   10.0673 C.ar    1  UNL1        0.0247
     17 C          66.0423   93.9624   10.4534 C.2     1  UNL1        0.2459
     18 O          66.9184   94.1088   11.6621 O.2     1  UNL1       -0.2701
     19 N          66.6488   95.0198    9.5794 N.am    1  UNL1       -0.3009
     20 C          66.9012   95.9145    8.4021 C.3     1  UNL1        0.0898
     21 C          66.7721   96.5494    7.0492 C.3     1  UNL1        0.0230
     22 C          66.2756   96.8558    5.6673 C.3     1  UNL1        0.0232
     23 C          65.4653   96.8004    4.4063 C.3     1  UNL1        0.0908
     24 N          64.4292   96.3894    3.4026 N.pl3   1  UNL1       -0.3074
     25 C          64.9258   96.0829    4.7844 C.3     1  UNL1        0.0908
     26 C          65.7360   96.1383    6.0455 C.3     1  UNL1        0.0232
     27 C          63.2794   95.6670    2.7650 C.ar    1  UNL1        0.0508
     28 C          63.6549   96.6279    1.6760 C.ar    1  UNL1        0.0352
     29 C          62.8917   96.6334    0.3847 C.ar    1  UNL1        0.1001
     30 N          61.7529   95.6782    0.1825 N.ar    1  UNL1       -0.2438
     31 C          61.3774   94.7175    1.2714 C.ar    1  UNL1        0.0825
     32 C          60.1393   93.6207    1.1556 C.ar    1  UNL1        0.0191
     33 C          59.6810   92.6209    2.1755 C.ar    1  UNL1        0.0016
     34 C          60.3753   92.5308    3.5021 C.ar    1  UNL1        0.0017
     35 C          61.1363   93.6273    2.8176 C.ar    1  UNL1        0.0028
     36 C          62.1407   94.7119    2.5627 C.ar    1  UNL1        0.0310
     37 H          60.3117   89.4364    8.9327 H       1  UNL1        0.1739
     38 H          67.3549   95.3443   10.1839 H       1  UNL1        0.1497
     39 C          59.0234   86.9518    7.8117 C.3     1  UNL1        0.2543
     40 O          58.5763   88.3802    7.9098 O.3     1  UNL1       -0.4553
@<TRIPOS>BOND
     1    39    40    1
     2    40     1    1
     3     1     2   ar
     4     2     3   ar
     5     3     4   ar
     6     4     5   ar
     7     5     6   ar
     8     6     7    1
     9     7     8    1
    10     8     9    2
    11     8    10    2
    12     8    11    1
    13    11    12   ar
    14    12    13   ar
    15    13    14   ar
    16    14    15   ar
    17    15    16   ar
    18    15    17    1
    19    17    18    2
    20    17    19   am
    21    19    20    1
    22    20    21    1
    23    21    22    1
    24    22    23    1
    25    23    24    1
    26    24    25    1
    27    25    26    1
    28    24    27    1
    29    27    28   ar
    30    28    29   ar
    31    29    30   ar
    32    30    31   ar
    33    31    32   ar
    34    32    33   ar
    35    33    34   ar
    36    34    35   ar
    37    35    36   ar
    38     6     1   ar
    39    16    11   ar
    40    26    21    1
    41    36    27   ar
    42    34     4    1
    43    36    31   ar
    44     7    37    1
    45    19    38    1
