@<TRIPOS>MOLECULE
*****
 39 41 0 0 0
SMALL
GASTEIGER

@<TRIPOS>ATOM
      1 O          63.4133   88.3172   12.6315 O.3     1  UNL1       -0.2709
      2 P          62.5271   87.2418   12.0761 P.3     1  UNL1        0.4634
      3 O          61.5344   88.2814   11.6472 O.2     1  UNL1       -0.2281
      4 N          63.5198   86.2023   12.5050 N.3     1  UNL1       -0.1929
      5 H          63.2953   85.3507   11.9903 H       1  UNL1        0.1358
      6 C          63.6266   85.8187   13.9511 C.3     1  UNL1        0.1635
      7 C          64.4542   86.6479   14.8879 C.3     1  UNL1        0.0296
      8 C          62.9058   84.6058   14.4606 C.2     1  UNL1        0.3317
      9 O          61.6695   84.7636   15.2952 O.2     1  UNL1       -0.2486
     10 O          63.4213   83.2352   14.1353 O.3     1  UNL1       -0.4514
     11 C          62.6427   82.2183   11.8749 C.3     1  UNL1        0.0473
     12 C          62.5614   82.2722   13.3717 C.3     1  UNL1        0.1691
     13 C          61.6202   81.3631   14.1049 C.3     1  UNL1        0.0473
     14 O          61.6410   86.1666   11.5207 O.3     1  UNL1       -0.4115
     15 C          61.6422   85.8798   10.0484 C.ar    1  UNL1        0.1479
     16 C          60.4644   86.2726    9.2068 C.ar    1  UNL1        0.0374
     17 C          60.4657   85.9858    7.7345 C.ar    1  UNL1        0.0031
     18 C          61.6448   85.3062    7.1038 C.ar    1  UNL1        0.0002
     19 C          62.8226   84.9134    7.9454 C.ar    1  UNL1        0.0031
     20 C          62.8214   85.2002    9.4177 C.ar    1  UNL1        0.0374
     21 C          62.9604   89.7470   12.6114 C.3     1  UNL1        0.1857
     22 C          63.9711   90.8529   12.5377 C.3     1  UNL1        0.1768
     23 O          64.3009   91.6663   11.3212 O.3     1  UNL1       -0.3306
     24 C          65.3631   92.6556   11.6992 C.3     1  UNL1        0.2413
     25 C          65.6898   92.4538   13.1492 C.3     1  UNL1        0.2057
     26 C          66.6608   93.5747   12.9243 C.3     1  UNL1        0.0426
     27 F          66.2195   92.4862   14.5522 F       1  UNL1       -0.2328
     28 C          64.8295   91.3396   13.6674 C.3     1  UNL1        0.1742
     29 O          64.8279   90.8059   15.0693 O.3     1  UNL1       -0.3792
     30 H          64.1799   90.0876   15.1410 H       1  UNL1        0.2106
     31 N          65.9888   93.6691   10.7872 N.ar    1  UNL1       -0.2549
     32 C          65.4338   95.0609   10.7196 C.ar    1  UNL1        0.0869
     33 C          66.0595   96.0743    9.8076 C.ar    1  UNL1        0.0795
     34 C          67.2402   95.6957    8.9634 C.ar    1  UNL1        0.2626
     35 O          67.8658   96.7091    8.0514 O.2     1  UNL1       -0.2670
     36 N          67.7951   94.3038    9.0310 N.ar    1  UNL1       -0.2743
     37 C          67.1694   93.2905    9.9430 C.ar    1  UNL1        0.3323
     38 O          67.7244   91.8985   10.0107 O.2     1  UNL1       -0.2464
     39 H          68.5700   94.0553    8.4769 H       1  UNL1        0.1734
@<TRIPOS>BOND
     1    11    12    1
     2    12    13    1
     3    12    10    1
     4    10     8    1
     5     8     9    2
     6     8     6    1
     7     6     7    1
     8     6     4    1
     9     2     4    1
    10     2     3    2
    11     2     1    1
    12     1    21    1
    13    22    21    1
    14    22    23    1
    15    23    24    1
    16    24    31    1
    17    31    32   ar
    18    32    33   ar
    19    33    34   ar
    20    34    35    2
    21    34    36   ar
    22    36    37   ar
    23    37    38    2
    24    24    25    1
    25    25    26    1
    26    25    27    1
    27    25    28    1
    28    28    29    1
    29     2    14    1
    30    14    15    1
    31    15    16   ar
    32    16    17   ar
    33    17    18   ar
    34    18    19   ar
    35    19    20   ar
    36    28    22    1
    37    20    15   ar
    38    37    31   ar
    39     4     5    1
    40    36    39    1
    41    29    30    1
@<TRIPOS>MOLECULE
*****
 39 41 0 0 0
SMALL
GASTEIGER

@<TRIPOS>ATOM
      1 O          62.5958   86.4023   12.7440 O.3     1  UNL1       -0.2709
      2 P          62.8900   85.0667   12.1278 P.3     1  UNL1        0.4634
      3 O          64.0954   84.9255   13.0093 O.2     1  UNL1       -0.2281
      4 N          61.6846   85.2080   11.2462 N.3     1  UNL1       -0.1929
      5 H          61.4969   84.2853   10.8539 H       1  UNL1        0.1358
      6 C          61.7048   86.1713   10.0966 C.3     1  UNL1        0.1635
      7 C          62.5885   85.9084    8.9134 C.3     1  UNL1        0.0296
      8 C          60.8414   87.3974   10.1303 C.2     1  UNL1        0.3317
      9 O          60.0457   87.7209   11.3599 O.2     1  UNL1       -0.2486
     10 O          60.7737   88.3001    8.9341 O.3     1  UNL1       -0.4514
     11 C          58.9715   86.7905    7.8285 C.3     1  UNL1        0.0473
     12 C          59.7067   88.0960    7.8999 C.3     1  UNL1        0.1691
     13 C          59.3748   89.1973    6.9372 C.3     1  UNL1        0.0473
     14 O          63.1841   83.7312   11.5116 O.3     1  UNL1       -0.4115
     15 C          62.7927   82.4725   12.2273 C.ar    1  UNL1        0.1479
     16 C          62.1640   82.5474   13.5871 C.ar    1  UNL1        0.0374
     17 C          61.7726   81.2886   14.3027 C.ar    1  UNL1        0.0031
     18 C          62.0098   79.9549   13.6586 C.ar    1  UNL1        0.0002
     19 C          62.6384   79.8800   12.2988 C.ar    1  UNL1        0.0031
     20 C          63.0299   81.1387   11.5831 C.ar    1  UNL1        0.0374
     21 C          63.5176   86.9682   13.7832 C.3     1  UNL1        0.1857
     22 C          63.9804   88.3914   13.6803 C.3     1  UNL1        0.1768
     23 O          65.0184   89.0455   14.5431 O.3     1  UNL1       -0.3306
     24 C          65.1659   90.4686   14.0926 C.3     1  UNL1        0.2413
     25 C          64.2191   90.6940   12.9512 C.3     1  UNL1        0.2057
     26 C          64.7783   92.0858   12.9682 C.3     1  UNL1        0.0426
     27 F          63.3891   91.2103   11.8134 F       1  UNL1       -0.2328
     28 C          63.4863   89.4102   12.6964 C.3     1  UNL1        0.1742
     29 O          62.4428   89.1848   11.6427 O.3     1  UNL1       -0.3792
     30 H          62.1279   88.2685   11.6903 H       1  UNL1        0.2106
     31 N          66.0969   91.4875   14.6802 N.ar    1  UNL1       -0.2549
     32 C          67.4580   91.6920   14.0838 C.ar    1  UNL1        0.0869
     33 C          68.3888   92.7109   14.6714 C.ar    1  UNL1        0.0795
     34 C          67.9587   93.5253   15.8554 C.ar    1  UNL1        0.2626
     35 O          68.8896   94.5442   16.4430 O.2     1  UNL1       -0.2670
     36 N          66.5976   93.3208   16.4517 N.ar    1  UNL1       -0.2743
     37 C          65.6667   92.3019   15.8641 C.ar    1  UNL1        0.3323
     38 O          64.3056   92.0973   16.4605 O.2     1  UNL1       -0.2464
     39 H          66.3153   93.8552   17.2288 H       1  UNL1        0.1734
@<TRIPOS>BOND
     1    11    12    1
     2    12    13    1
     3    12    10    1
     4    10     8    1
     5     8     9    2
     6     8     6    1
     7     6     7    1
     8     6     4    1
     9     2     4    1
    10     2     3    2
    11     2     1    1
    12     1    21    1
    13    22    21    1
    14    22    23    1
    15    23    24    1
    16    24    31    1
    17    31    32   ar
    18    32    33   ar
    19    33    34   ar
    20    34    35    2
    21    34    36   ar
    22    36    37   ar
    23    37    38    2
    24    24    25    1
    25    25    26    1
    26    25    27    1
    27    25    28    1
    28    28    29    1
    29     2    14    1
    30    14    15    1
    31    15    16   ar
    32    16    17   ar
    33    17    18   ar
    34    18    19   ar
    35    19    20   ar
    36    28    22    1
    37    20    15   ar
    38    37    31   ar
    39     4     5    1
    40    36    39    1
    41    29    30    1
@<TRIPOS>MOLECULE
*****
 39 41 0 0 0
SMALL
GASTEIGER

@<TRIPOS>ATOM
      1 O          62.8729   88.7251   11.4958 O.3     1  UNL1       -0.2709
      2 P          62.3778   87.3492   11.8304 P.3     1  UNL1        0.4634
      3 O          63.4654   87.2066   12.8535 O.2     1  UNL1       -0.2281
      4 N          61.2901   87.4918   10.8073 N.3     1  UNL1       -0.1929
      5 H          61.7484   87.6624    9.9122 H       1  UNL1        0.1358
      6 C          60.2442   88.5549   10.9678 C.3     1  UNL1        0.1635
      7 C          59.3569   88.5575   12.1773 C.3     1  UNL1        0.0296
      8 C          60.0855   89.6154    9.9189 C.2     1  UNL1        0.3317
      9 O          59.4802   90.9402   10.2773 O.2     1  UNL1       -0.2486
     10 O          60.5321   89.3510    8.5115 O.3     1  UNL1       -0.4514
     11 C          59.0367   87.4034    7.6626 C.3     1  UNL1        0.0473
     12 C          59.5629   88.7996    7.5082 C.3     1  UNL1        0.1691
     13 C          59.1200   89.6443    6.3506 C.3     1  UNL1        0.0473
     14 O          61.8827   85.9734   12.1650 O.3     1  UNL1       -0.4115
     15 C          62.6774   84.7697   11.7534 C.ar    1  UNL1        0.1479
     16 C          63.0572   83.7372   12.7730 C.ar    1  UNL1        0.0374
     17 C          63.8520   82.5335   12.3615 C.ar    1  UNL1        0.0031
     18 C          64.2669   82.3622   10.9302 C.ar    1  UNL1        0.0002
     19 C          63.8871   83.3947    9.9106 C.ar    1  UNL1        0.0031
     20 C          63.0924   84.5984   10.3222 C.ar    1  UNL1        0.0374
     21 C          62.9137   89.7858   12.5557 C.3     1  UNL1        0.1857
     22 C          63.9377   90.8794   12.4832 C.3     1  UNL1        0.1768
     23 O          64.2654   91.7016   11.2721 O.3     1  UNL1       -0.3306
     24 C          65.3441   92.6732   11.6495 C.3     1  UNL1        0.2413
     25 C          65.6831   92.4515   13.0937 C.3     1  UNL1        0.2057
     26 C          66.6661   93.5623   12.8707 C.3     1  UNL1        0.0426
     27 F          66.2276   92.4620   14.4914 F       1  UNL1       -0.2328
     28 C          64.8140   91.3429   13.6090 C.3     1  UNL1        0.1742
     29 O          64.8199   90.7941   15.0050 O.3     1  UNL1       -0.3792
     30 H          64.1636   90.0834   15.0759 H       1  UNL1        0.2106
     31 N          65.9733   93.6883   10.7419 N.ar    1  UNL1       -0.2549
     32 C          65.4253   95.0833   10.6826 C.ar    1  UNL1        0.0869
     33 C          66.0545   96.0983    9.7750 C.ar    1  UNL1        0.0795
     34 C          67.2318   95.7184    8.9268 C.ar    1  UNL1        0.2626
     35 O          67.8611   96.7335    8.0192 O.2     1  UNL1       -0.2670
     36 N          67.7799   94.3234    8.9860 N.ar    1  UNL1       -0.2743
     37 C          67.1507   93.3084    9.8936 C.ar    1  UNL1        0.3323
     38 O          67.6987   91.9133    9.9529 O.2     1  UNL1       -0.2464
     39 H          68.5526   94.0740    8.4293 H       1  UNL1        0.1734
@<TRIPOS>BOND
     1    11    12    1
     2    12    13    1
     3    12    10    1
     4    10     8    1
     5     8     9    2
     6     8     6    1
     7     6     7    1
     8     6     4    1
     9     2     4    1
    10     2     3    2
    11     2     1    1
    12     1    21    1
    13    22    21    1
    14    22    23    1
    15    23    24    1
    16    24    31    1
    17    31    32   ar
    18    32    33   ar
    19    33    34   ar
    20    34    35    2
    21    34    36   ar
    22    36    37   ar
    23    37    38    2
    24    24    25    1
    25    25    26    1
    26    25    27    1
    27    25    28    1
    28    28    29    1
    29     2    14    1
    30    14    15    1
    31    15    16   ar
    32    16    17   ar
    33    17    18   ar
    34    18    19   ar
    35    19    20   ar
    36    28    22    1
    37    20    15   ar
    38    37    31   ar
    39     4     5    1
    40    36    39    1
    41    29    30    1
@<TRIPOS>MOLECULE
*****
 39 41 0 0 0
SMALL
GASTEIGER

@<TRIPOS>ATOM
      1 O          62.4076   88.1049   10.9042 O.3     1  UNL1       -0.2709
      2 P          61.9914   86.7617   11.4264 P.3     1  UNL1        0.4634
      3 O          63.0930   86.8156   12.4431 O.2     1  UNL1       -0.2281
      4 N          60.8898   86.7078   10.4097 N.3     1  UNL1       -0.1929
      5 H          60.1940   86.0515   10.7640 H       1  UNL1        0.1358
      6 C          61.1913   86.2991    8.9983 C.3     1  UNL1        0.1635
      7 C          62.5853   85.9001    8.6145 C.3     1  UNL1        0.0296
      8 C          60.0986   86.2896    7.9706 C.2     1  UNL1        0.3317
      9 O          60.0324   85.1863    6.9566 O.2     1  UNL1       -0.2486
     10 O          59.0721   87.3834    7.9571 O.3     1  UNL1       -0.4514
     11 C          59.3012   89.4214    6.3621 C.3     1  UNL1        0.0473
     12 C          59.4920   88.8029    7.7153 C.3     1  UNL1        0.1691
     13 C          60.1028   89.6041    8.8267 C.3     1  UNL1        0.0473
     14 O          61.5752   85.4186   11.9486 O.3     1  UNL1       -0.4115
     15 C          62.5855   84.3170   12.0747 C.ar    1  UNL1        0.1479
     16 C          63.3359   83.8454   10.8646 C.ar    1  UNL1        0.0374
     17 C          64.3461   82.7438   10.9907 C.ar    1  UNL1        0.0031
     18 C          64.6059   82.1138   12.3270 C.ar    1  UNL1        0.0002
     19 C          63.8555   82.5854   13.5371 C.ar    1  UNL1        0.0031
     20 C          62.8453   83.6870   13.4110 C.ar    1  UNL1        0.0374
     21 C          62.1683   89.3363   11.7265 C.3     1  UNL1        0.1857
     22 C          63.2845   90.3106   11.9604 C.3     1  UNL1        0.1768
     23 O          64.2035   90.3307   13.1458 O.3     1  UNL1       -0.3306
     24 C          65.1647   91.4684   12.9680 C.3     1  UNL1        0.2413
     25 C          64.8398   92.1515   11.6727 C.3     1  UNL1        0.2057
     26 C          65.9839   93.0491   12.0407 C.3     1  UNL1        0.0426
     27 F          64.7541   93.0223   10.4543 F       1  UNL1       -0.2328
     28 C          63.6778   91.4360   11.0499 C.3     1  UNL1        0.1742
     29 O          63.0239   91.7847    9.7458 O.3     1  UNL1       -0.3792
     30 H          62.2969   91.1661    9.5731 H       1  UNL1        0.2106
     31 N          66.2587   91.8551   13.9186 N.ar    1  UNL1       -0.2549
     32 C          67.6856   91.8647   13.4560 C.ar    1  UNL1        0.0869
     33 C          68.7795   92.2514   14.4066 C.ar    1  UNL1        0.0795
     34 C          68.4467   92.6286   15.8197 C.ar    1  UNL1        0.2626
     35 O          69.5407   93.0153   16.7703 O.2     1  UNL1       -0.2670
     36 N          67.0198   92.6191   16.2823 N.ar    1  UNL1       -0.2743
     37 C          65.9259   92.2323   15.3317 C.ar    1  UNL1        0.3323
     38 O          64.4989   92.2228   15.7942 O.2     1  UNL1       -0.2464
     39 H          66.8014   92.8666   17.2097 H       1  UNL1        0.1734
@<TRIPOS>BOND
     1    11    12    1
     2    12    13    1
     3    12    10    1
     4    10     8    1
     5     8     9    2
     6     8     6    1
     7     6     7    1
     8     6     4    1
     9     2     4    1
    10     2     3    2
    11     2     1    1
    12     1    21    1
    13    22    21    1
    14    22    23    1
    15    23    24    1
    16    24    31    1
    17    31    32   ar
    18    32    33   ar
    19    33    34   ar
    20    34    35    2
    21    34    36   ar
    22    36    37   ar
    23    37    38    2
    24    24    25    1
    25    25    26    1
    26    25    27    1
    27    25    28    1
    28    28    29    1
    29     2    14    1
    30    14    15    1
    31    15    16   ar
    32    16    17   ar
    33    17    18   ar
    34    18    19   ar
    35    19    20   ar
    36    28    22    1
    37    20    15   ar
    38    37    31   ar
    39     4     5    1
    40    36    39    1
    41    29    30    1
@<TRIPOS>MOLECULE
*****
 39 41 0 0 0
SMALL
GASTEIGER

@<TRIPOS>ATOM
      1 O          63.7795   90.9131   12.6816 O.3     1  UNL1       -0.2709
      2 P          63.8969   90.4429   14.1012 P.3     1  UNL1        0.4634
      3 O          62.4223   90.1698   14.1327 O.2     1  UNL1       -0.2281
      4 N          65.3715   90.7160   14.0697 N.3     1  UNL1       -0.1929
      5 H          65.8119   90.0258   14.6781 H       1  UNL1        0.1358
      6 C          65.8948   92.0582   14.4877 C.3     1  UNL1        0.1635
      7 C          65.8248   92.4755   15.9267 C.3     1  UNL1        0.0296
      8 C          66.4881   92.9831   13.4665 C.2     1  UNL1        0.3317
      9 O          66.2498   94.4607   13.5648 O.2     1  UNL1       -0.2486
     10 O          67.3197   92.4302   12.3472 O.3     1  UNL1       -0.4514
     11 C          65.4737   92.9570   10.5966 C.3     1  UNL1        0.0473
     12 C          66.9067   92.6573   10.9232 C.3     1  UNL1        0.1691
     13 C          67.9267   92.5847    9.8258 C.3     1  UNL1        0.0473
     14 O          64.0143   89.9727   15.5207 O.3     1  UNL1       -0.4115
     15 C          63.8102   88.5236   15.8500 C.ar    1  UNL1        0.1479
     16 C          64.3915   87.4636   14.9622 C.ar    1  UNL1        0.0374
     17 C          64.1874   86.0145   15.2916 C.ar    1  UNL1        0.0031
     18 C          63.4020   85.6255   16.5089 C.ar    1  UNL1        0.0002
     19 C          62.8207   86.6855   17.3967 C.ar    1  UNL1        0.0031
     20 C          63.0248   88.1346   17.0673 C.ar    1  UNL1        0.0374
     21 C          62.4868   90.7436   11.9399 C.3     1  UNL1        0.1857
     22 C          62.1638   89.4330   11.2857 C.3     1  UNL1        0.1768
     23 O          62.8787   88.1342   11.5131 O.3     1  UNL1       -0.3306
     24 C          62.2259   87.0896   10.6571 C.3     1  UNL1        0.2413
     25 C          61.1075   87.7430    9.9006 C.3     1  UNL1        0.2057
     26 C          60.9031   86.3713    9.3290 C.3     1  UNL1        0.0426
     27 F          59.9463   88.1095    9.0245 F       1  UNL1       -0.2328
     28 C          61.0691   89.1913   10.2890 C.3     1  UNL1        0.1742
     29 O          60.1052   90.2176    9.7717 O.3     1  UNL1       -0.3792
     30 H          60.2955   91.0757   10.1821 H       1  UNL1        0.2106
     31 N          62.6219   85.6453   10.5725 N.ar    1  UNL1       -0.2549
     32 C          63.1657   85.0907    9.2893 C.ar    1  UNL1        0.0869
     33 C          63.5617   83.6464    9.2047 C.ar    1  UNL1        0.0795
     34 C          63.4140   82.7567   10.4033 C.ar    1  UNL1        0.2626
     35 O          63.8100   81.3124   10.3186 O.2     1  UNL1       -0.2670
     36 N          62.8702   83.3113   11.6865 N.ar    1  UNL1       -0.2743
     37 C          62.4742   84.7556   11.7711 C.ar    1  UNL1        0.3323
     38 O          61.9304   85.3103   13.0544 O.2     1  UNL1       -0.2464
     39 H          62.7732   82.7274   12.4732 H       1  UNL1        0.1734
@<TRIPOS>BOND
     1    11    12    1
     2    12    13    1
     3    12    10    1
     4    10     8    1
     5     8     9    2
     6     8     6    1
     7     6     7    1
     8     6     4    1
     9     2     4    1
    10     2     3    2
    11     2     1    1
    12     1    21    1
    13    22    21    1
    14    22    23    1
    15    23    24    1
    16    24    31    1
    17    31    32   ar
    18    32    33   ar
    19    33    34   ar
    20    34    35    2
    21    34    36   ar
    22    36    37   ar
    23    37    38    2
    24    24    25    1
    25    25    26    1
    26    25    27    1
    27    25    28    1
    28    28    29    1
    29     2    14    1
    30    14    15    1
    31    15    16   ar
    32    16    17   ar
    33    17    18   ar
    34    18    19   ar
    35    19    20   ar
    36    28    22    1
    37    20    15   ar
    38    37    31   ar
    39     4     5    1
    40    36    39    1
    41    29    30    1
@<TRIPOS>MOLECULE
*****
 39 41 0 0 0
SMALL
GASTEIGER

@<TRIPOS>ATOM
      1 O          63.0370   85.3428   14.0223 O.3     1  UNL1       -0.2709
      2 P          63.6545   84.4201   13.0136 P.3     1  UNL1        0.4634
      3 O          64.8881   84.3193   13.8610 O.2     1  UNL1       -0.2281
      4 N          62.4209   84.5209   12.1662 N.3     1  UNL1       -0.1929
      5 H          62.2417   83.5880   11.7949 H       1  UNL1        0.1358
      6 C          62.3866   85.4648   11.0009 C.3     1  UNL1        0.1635
      7 C          62.9212   85.0308    9.6683 C.3     1  UNL1        0.0296
      8 C          61.8176   86.8426   11.1682 C.2     1  UNL1        0.3317
      9 O          62.6452   87.9247   11.7959 O.2     1  UNL1       -0.2486
     10 O          60.4209   87.1383   10.7076 O.3     1  UNL1       -0.4514
     11 C          59.7788   86.5690    8.2554 C.3     1  UNL1        0.0473
     12 C          60.1742   87.5761    9.2944 C.3     1  UNL1        0.1691
     13 C          60.3227   89.0210    8.9201 C.3     1  UNL1        0.0473
     14 O          64.2720   83.4975   12.0050 O.3     1  UNL1       -0.4115
     15 C          63.7026   82.1256   11.7960 C.ar    1  UNL1        0.1479
     16 C          63.2262   81.3243   12.9711 C.ar    1  UNL1        0.0374
     17 C          62.6569   79.9524   12.7621 C.ar    1  UNL1        0.0031
     18 C          62.5640   79.3818   11.3780 C.ar    1  UNL1        0.0002
     19 C          63.0404   80.1830   10.2029 C.ar    1  UNL1        0.0031
     20 C          63.6097   81.5550   10.4119 C.ar    1  UNL1        0.0374
     21 C          63.8928   85.9866   15.0726 C.3     1  UNL1        0.1857
     22 C          64.0246   87.4801   15.1208 C.3     1  UNL1        0.1768
     23 O          64.7057   88.3386   14.0966 O.3     1  UNL1       -0.3306
     24 C          64.6004   89.7663   14.5445 C.3     1  UNL1        0.2413
     25 C          63.8543   89.7901   15.8456 C.3     1  UNL1        0.2057
     26 C          64.0634   91.2728   15.7576 C.3     1  UNL1        0.0426
     27 F          63.1519   90.1239   17.1282 F       1  UNL1       -0.2328
     28 C          63.4984   88.3772   16.2018 C.3     1  UNL1        0.1742
     29 O          62.7480   87.9383   17.4242 O.3     1  UNL1       -0.3792
     30 H          62.6505   86.9733   17.4146 H       1  UNL1        0.2106
     31 N          65.1456   90.9605   13.8188 N.ar    1  UNL1       -0.2549
     32 C          66.4674   91.5441   14.2218 C.ar    1  UNL1        0.0869
     33 C          67.0125   92.7383   13.4961 C.ar    1  UNL1        0.0795
     34 C          66.2359   93.3489   12.3674 C.ar    1  UNL1        0.2626
     35 O          66.7811   94.5432   11.6417 O.2     1  UNL1       -0.2670
     36 N          64.9142   92.7654   11.9644 N.ar    1  UNL1       -0.2743
     37 C          64.3690   91.5712   12.6901 C.ar    1  UNL1        0.3323
     38 O          63.0472   90.9876   12.2871 O.2     1  UNL1       -0.2464
     39 H          64.4045   93.1662   11.2236 H       1  UNL1        0.1734
@<TRIPOS>BOND
     1    11    12    1
     2    12    13    1
     3    12    10    1
     4    10     8    1
     5     8     9    2
     6     8     6    1
     7     6     7    1
     8     6     4    1
     9     2     4    1
    10     2     3    2
    11     2     1    1
    12     1    21    1
    13    22    21    1
    14    22    23    1
    15    23    24    1
    16    24    31    1
    17    31    32   ar
    18    32    33   ar
    19    33    34   ar
    20    34    35    2
    21    34    36   ar
    22    36    37   ar
    23    37    38    2
    24    24    25    1
    25    25    26    1
    26    25    27    1
    27    25    28    1
    28    28    29    1
    29     2    14    1
    30    14    15    1
    31    15    16   ar
    32    16    17   ar
    33    17    18   ar
    34    18    19   ar
    35    19    20   ar
    36    28    22    1
    37    20    15   ar
    38    37    31   ar
    39     4     5    1
    40    36    39    1
    41    29    30    1
@<TRIPOS>MOLECULE
*****
 39 41 0 0 0
SMALL
GASTEIGER

@<TRIPOS>ATOM
      1 O          62.6321   88.4159   10.9297 O.3     1  UNL1       -0.2709
      2 P          62.1394   87.0920   11.4343 P.3     1  UNL1        0.4634
      3 O          63.2303   87.0784   12.4638 O.2     1  UNL1       -0.2281
      4 N          61.0486   87.1057   10.4048 N.3     1  UNL1       -0.1929
      5 H          60.2648   86.5856   10.7993 H       1  UNL1        0.1358
      6 C          61.2997   86.5400    9.0384 C.3     1  UNL1        0.1635
      7 C          62.6669   86.0437    8.6719 C.3     1  UNL1        0.0296
      8 C          60.1836   86.4706    8.0387 C.2     1  UNL1        0.3317
      9 O          60.1084   85.3219    7.0770 O.2     1  UNL1       -0.2486
     10 O          59.1426   87.5501    8.0006 O.3     1  UNL1       -0.4514
     11 C          60.1511   89.8092    8.7935 C.3     1  UNL1        0.0473
     12 C          59.5416   88.9669    7.7123 C.3     1  UNL1        0.1691
     13 C          59.3312   89.5415    6.3429 C.3     1  UNL1        0.0473
     14 O          61.6467   85.7682   11.9388 O.3     1  UNL1       -0.4115
     15 C          62.6117   84.6391   12.1481 C.ar    1  UNL1        0.1479
     16 C          62.9432   84.1837   13.5382 C.ar    1  UNL1        0.0374
     17 C          63.9081   83.0545   13.7475 C.ar    1  UNL1        0.0031
     18 C          64.5417   82.3807   12.5665 C.ar    1  UNL1        0.0002
     19 C          64.2103   82.8362   11.1764 C.ar    1  UNL1        0.0031
     20 C          63.2453   83.9653   10.9671 C.ar    1  UNL1        0.0374
     21 C          62.4387   89.6527   11.7562 C.3     1  UNL1        0.1857
     22 C          63.5426   90.6625   11.8647 C.3     1  UNL1        0.1768
     23 O          63.9687   91.6216   10.7930 O.3     1  UNL1       -0.3306
     24 C          65.1036   92.4423   11.3300 C.3     1  UNL1        0.2413
     25 C          65.3790   91.9904   12.7335 C.3     1  UNL1        0.2057
     26 C          66.4480   93.0419   12.6948 C.3     1  UNL1        0.0426
     27 F          65.8779   91.7583   14.1290 F       1  UNL1       -0.2328
     28 C          64.4143   90.8904   13.0641 C.3     1  UNL1        0.1742
     29 O          64.3351   90.1486   14.3654 O.3     1  UNL1       -0.3792
     30 H          63.6260   89.4883   14.3185 H       1  UNL1        0.2106
     31 N          65.8348   93.5249   10.5928 N.ar    1  UNL1       -0.2549
     32 C          65.3068   94.9288   10.6047 C.ar    1  UNL1        0.0869
     33 C          66.0380   96.0113    9.8675 C.ar    1  UNL1        0.0795
     34 C          67.2973   95.6899    9.1185 C.ar    1  UNL1        0.2626
     35 O          68.0285   96.7725    8.3813 O.2     1  UNL1       -0.2670
     36 N          67.8252   94.2860    9.1066 N.ar    1  UNL1       -0.2743
     37 C          67.0940   93.2035    9.8437 C.ar    1  UNL1        0.3323
     38 O          67.6220   91.7995    9.8319 O.2     1  UNL1       -0.2464
     39 H          68.6517   94.0751    8.6150 H       1  UNL1        0.1734
@<TRIPOS>BOND
     1    11    12    1
     2    12    13    1
     3    12    10    1
     4    10     8    1
     5     8     9    2
     6     8     6    1
     7     6     7    1
     8     6     4    1
     9     2     4    1
    10     2     3    2
    11     2     1    1
    12     1    21    1
    13    22    21    1
    14    22    23    1
    15    23    24    1
    16    24    31    1
    17    31    32   ar
    18    32    33   ar
    19    33    34   ar
    20    34    35    2
    21    34    36   ar
    22    36    37   ar
    23    37    38    2
    24    24    25    1
    25    25    26    1
    26    25    27    1
    27    25    28    1
    28    28    29    1
    29     2    14    1
    30    14    15    1
    31    15    16   ar
    32    16    17   ar
    33    17    18   ar
    34    18    19   ar
    35    19    20   ar
    36    28    22    1
    37    20    15   ar
    38    37    31   ar
    39     4     5    1
    40    36    39    1
    41    29    30    1
@<TRIPOS>MOLECULE
*****
 39 41 0 0 0
SMALL
GASTEIGER

@<TRIPOS>ATOM
      1 O          64.8308   90.1416   13.5435 O.3     1  UNL1       -0.2709
      2 P          65.1045   91.5994   13.3200 P.3     1  UNL1        0.4634
      3 O          66.4997   91.4171   13.8398 O.2     1  UNL1       -0.2281
      4 N          63.7092   91.7816   12.8003 N.3     1  UNL1       -0.1929
      5 H          63.0782   91.6003   13.5810 H       1  UNL1        0.1358
      6 C          63.2233   90.9518   11.6491 C.3     1  UNL1        0.1635
      7 C          63.5251   91.3726   10.2413 C.3     1  UNL1        0.0296
      8 C          62.4357   89.7013   11.9057 C.2     1  UNL1        0.3317
      9 O          61.4182   89.6686   13.0073 O.2     1  UNL1       -0.2486
     10 O          62.6655   88.4835   11.0606 O.3     1  UNL1       -0.4514
     11 C          60.6147   89.1133    9.5952 C.3     1  UNL1        0.0473
     12 C          61.7512   88.1861    9.9093 C.3     1  UNL1        0.1691
     13 C          61.9734   86.9615    9.0721 C.3     1  UNL1        0.0473
     14 O          65.3781   93.0571   13.0966 O.3     1  UNL1       -0.4115
     15 C          66.1191   93.5018   11.8706 C.ar    1  UNL1        0.1479
     16 C          66.1408   94.9532   11.4926 C.ar    1  UNL1        0.0374
     17 C          66.8818   95.3979   10.2666 C.ar    1  UNL1        0.0031
     18 C          67.6012   94.3912    9.4186 C.ar    1  UNL1        0.0002
     19 C          67.5795   92.9398    9.7966 C.ar    1  UNL1        0.0031
     20 C          66.8385   92.4951   11.0226 C.ar    1  UNL1        0.0374
     21 C          64.5745   89.6305   14.9302 C.3     1  UNL1        0.1857
     22 C          64.0779   88.2298   15.1335 C.3     1  UNL1        0.1768
     23 O          64.1580   87.1124   14.1359 O.3     1  UNL1       -0.3306
     24 C          63.5436   85.8926   14.7559 C.3     1  UNL1        0.2413
     25 C          63.0838   86.2560   16.1367 C.3     1  UNL1        0.2057
     26 C          62.6380   84.8249   16.1945 C.3     1  UNL1        0.0426
     27 F          62.5308   86.3202   17.5296 F       1  UNL1       -0.2328
     28 C          63.4140   87.7004   16.3701 C.3     1  UNL1        0.1742
     29 O          63.1301   88.4789   17.6205 O.3     1  UNL1       -0.3792
     30 H          63.4435   89.3904   17.5120 H       1  UNL1        0.2106
     31 N          63.4122   84.5457   14.1088 N.ar    1  UNL1       -0.2549
     32 C          64.1021   83.3557   14.7069 C.ar    1  UNL1        0.0869
     33 C          63.9706   82.0089   14.0597 C.ar    1  UNL1        0.0795
     34 C          63.1491   81.8521   12.8145 C.ar    1  UNL1        0.2626
     35 O          63.0176   80.5053   12.1673 O.2     1  UNL1       -0.2670
     36 N          62.4592   83.0422   12.2164 N.ar    1  UNL1       -0.2743
     37 C          62.5907   84.3889   12.8635 C.ar    1  UNL1        0.3323
     38 O          61.9007   85.5791   12.2654 O.2     1  UNL1       -0.2464
     39 H          61.9200   82.9393   11.3991 H       1  UNL1        0.1734
@<TRIPOS>BOND
     1    11    12    1
     2    12    13    1
     3    12    10    1
     4    10     8    1
     5     8     9    2
     6     8     6    1
     7     6     7    1
     8     6     4    1
     9     2     4    1
    10     2     3    2
    11     2     1    1
    12     1    21    1
    13    22    21    1
    14    22    23    1
    15    23    24    1
    16    24    31    1
    17    31    32   ar
    18    32    33   ar
    19    33    34   ar
    20    34    35    2
    21    34    36   ar
    22    36    37   ar
    23    37    38    2
    24    24    25    1
    25    25    26    1
    26    25    27    1
    27    25    28    1
    28    28    29    1
    29     2    14    1
    30    14    15    1
    31    15    16   ar
    32    16    17   ar
    33    17    18   ar
    34    18    19   ar
    35    19    20   ar
    36    28    22    1
    37    20    15   ar
    38    37    31   ar
    39     4     5    1
    40    36    39    1
    41    29    30    1
@<TRIPOS>MOLECULE
*****
 39 41 0 0 0
SMALL
GASTEIGER

@<TRIPOS>ATOM
      1 O          64.2057   91.7568   12.3211 O.3     1  UNL1       -0.2709
      2 P          65.4779   92.5173   12.0906 P.3     1  UNL1        0.4634
      3 O          65.5164   92.0237   10.6746 O.2     1  UNL1       -0.2281
      4 N          65.4395   93.0109   13.5066 N.3     1  UNL1       -0.1929
      5 H          66.1111   93.7759   13.5701 H       1  UNL1        0.1358
      6 C          65.7440   92.0725   14.6365 C.3     1  UNL1        0.1635
      7 C          67.0469   91.3299   14.6642 C.3     1  UNL1        0.0296
      8 C          64.7455   91.8767   15.7386 C.2     1  UNL1        0.3317
      9 O          64.9642   92.5263   17.0729 O.2     1  UNL1       -0.2486
     10 O          63.5283   91.0312   15.5065 O.3     1  UNL1       -0.4514
     11 C          63.0510   88.8436   16.8242 C.3     1  UNL1        0.0473
     12 C          63.6188   89.5385   15.6222 C.3     1  UNL1        0.1691
     13 C          64.2772   88.7406   14.5360 C.3     1  UNL1        0.0473
     14 O          66.7501   93.2778   11.8601 O.3     1  UNL1       -0.4115
     15 C          66.7717   94.4296   10.8995 C.ar    1  UNL1        0.1479
     16 C          67.5073   94.3071    9.5981 C.ar    1  UNL1        0.0374
     17 C          67.5290   95.4589    8.6374 C.ar    1  UNL1        0.0031
     18 C          66.8151   96.7333    8.9783 C.ar    1  UNL1        0.0002
     19 C          66.0795   96.8558   10.2797 C.ar    1  UNL1        0.0031
     20 C          66.0578   95.7040   11.2403 C.ar    1  UNL1        0.0374
     21 C          63.2977   91.4470   11.1681 C.3     1  UNL1        0.1857
     22 C          62.6546   90.0960   11.0619 C.3     1  UNL1        0.1768
     23 O          63.3263   88.7778   11.3094 O.3     1  UNL1       -0.3306
     24 C          62.3137   87.6932   11.0900 C.3     1  UNL1        0.2413
     25 C          61.0162   88.3410   10.7068 C.3     1  UNL1        0.2057
     26 C          60.5122   86.9297   10.6412 C.3     1  UNL1        0.0426
     27 F          59.6133   88.6937   10.3099 F       1  UNL1       -0.2328
     28 C          61.2268   89.8260   10.6894 C.3     1  UNL1        0.1742
     29 O          60.1916   90.8595   10.3578 O.3     1  UNL1       -0.3792
     30 H          60.5858   91.7436   10.4201 H       1  UNL1        0.2106
     31 N          62.5560   86.2194   11.2293 N.ar    1  UNL1       -0.2549
     32 C          62.5160   85.5775   12.5844 C.ar    1  UNL1        0.0869
     33 C          62.7583   84.1038   12.7236 C.ar    1  UNL1        0.0795
     34 C          63.0407   83.2720   11.5078 C.ar    1  UNL1        0.2626
     35 O          63.2830   81.7982   11.6471 O.2     1  UNL1       -0.2670
     36 N          63.0808   83.9139   10.1527 N.ar    1  UNL1       -0.2743
     37 C          62.8384   85.3876   10.0134 C.ar    1  UNL1        0.3323
     38 O          62.8785   86.0295    8.6583 O.2     1  UNL1       -0.2464
     39 H          63.2661   83.3679    9.3547 H       1  UNL1        0.1734
@<TRIPOS>BOND
     1    11    12    1
     2    12    13    1
     3    12    10    1
     4    10     8    1
     5     8     9    2
     6     8     6    1
     7     6     7    1
     8     6     4    1
     9     2     4    1
    10     2     3    2
    11     2     1    1
    12     1    21    1
    13    22    21    1
    14    22    23    1
    15    23    24    1
    16    24    31    1
    17    31    32   ar
    18    32    33   ar
    19    33    34   ar
    20    34    35    2
    21    34    36   ar
    22    36    37   ar
    23    37    38    2
    24    24    25    1
    25    25    26    1
    26    25    27    1
    27    25    28    1
    28    28    29    1
    29     2    14    1
    30    14    15    1
    31    15    16   ar
    32    16    17   ar
    33    17    18   ar
    34    18    19   ar
    35    19    20   ar
    36    28    22    1
    37    20    15   ar
    38    37    31   ar
    39     4     5    1
    40    36    39    1
    41    29    30    1
