@<TRIPOS>MOLECULE
*****
 29 33 0 0 0
SMALL
GASTEIGER

@<TRIPOS>ATOM
      1 C          63.1202   83.1392   11.9209 C.ar    1  UNL1        0.0013
      2 C          63.9424   83.5744   13.0975 C.ar    1  UNL1        0.0002
      3 C          64.0775   85.0332   13.4195 C.ar    1  UNL1        0.0051
      4 C          63.3904   86.0567   12.5649 C.ar    1  UNL1        0.0623
      5 C          62.5682   85.6214   11.3883 C.ar    1  UNL1        0.0775
      6 C          62.4331   84.1627   11.0663 C.ar    1  UNL1        0.0167
      7 N          61.8811   86.6449   10.5337 N.am    1  UNL1       -0.1720
      8 C          62.0162   88.1037   10.8557 C.2     1  UNL1        0.3160
      9 O          61.3291   89.1272   10.0011 O.2     1  UNL1       -0.2638
     10 C          62.8385   88.5390   12.0323 C.2     1  UNL1        0.2907
     11 N          63.1519   89.8953   12.5912 N.2     1  UNL1       -0.0255
     12 C          64.0326   89.7100   13.7911 C.2     1  UNL1        0.3787
     13 N          64.2636   88.2392   13.9739 N.2     1  UNL1       -0.0302
     14 C          63.5256   87.5155   12.8869 C.2     1  UNL1        0.2419
     15 C          64.5853   90.8035   14.6564 C.ar    1  UNL1        0.1263
     16 C          65.6230   91.7393   14.1110 C.ar    1  UNL1        0.1484
     17 F          66.1080   91.5815   12.7003 F       1  UNL1       -0.2039
     18 C          66.1758   92.8328   14.9763 C.ar    1  UNL1        0.0300
     19 C          65.6908   92.9906   16.3869 C.ar    1  UNL1        0.0032
     20 C          64.6531   92.0548   16.9322 C.ar    1  UNL1        0.0118
     21 C          64.1004   90.9612   16.0670 C.ar    1  UNL1        0.0673
     22 CL         63.0626   90.0254   16.6124 Cl      1  UNL1       -0.0819
     23 C          62.5795   77.3040   10.6327 C.3     1  UNL1        0.0310
     24 C          62.7147   78.7628   10.9547 C.ar    1  UNL1       -0.0218
     25 C          63.0260   79.7456    9.8652 C.ar    1  UNL1       -0.0043
     26 C          63.1612   81.2044   10.1873 C.ar    1  UNL1       -0.0003
     27 C          62.9850   81.6803   11.5988 C.ar    1  UNL1        0.0000
     28 C          62.6737   80.6975   12.6883 C.ar    1  UNL1       -0.0003
     29 C          62.5385   79.2387   12.3663 C.ar    1  UNL1       -0.0043
@<TRIPOS>BOND
     1    23    24    1
     2    24    25   ar
     3    25    26   ar
     4    26    27   ar
     5    27     1    1
     6     1     2   ar
     7     2     3   ar
     8     3     4   ar
     9     4     5   ar
    10     5     6   ar
    11     5     7    2
    12     7     8    1
    13     8     9    2
    14     8    10    1
    15    10    11    2
    16    11    12    1
    17    12    15    1
    18    15    16   ar
    19    16    17    1
    20    16    18   ar
    21    18    19   ar
    22    19    20   ar
    23    20    21   ar
    24    21    22    1
    25    12    13    2
    26    13    14    1
    27    27    28   ar
    28    28    29   ar
    29    29    24   ar
    30     6     1   ar
    31    14    10    1
    32    14     4    2
    33    21    15   ar
@<TRIPOS>MOLECULE
*****
 29 33 0 0 0
SMALL
GASTEIGER

@<TRIPOS>ATOM
      1 C          62.8167   84.4066   12.9196 C.ar    1  UNL1        0.0013
      2 C          63.9499   85.0530   13.6598 C.ar    1  UNL1        0.0002
      3 C          64.2026   86.5237   13.5083 C.ar    1  UNL1        0.0051
      4 C          63.3223   87.3480   12.6164 C.ar    1  UNL1        0.0623
      5 C          62.1891   86.7016   11.8761 C.ar    1  UNL1        0.0775
      6 C          61.9363   85.2309   12.0277 C.ar    1  UNL1        0.0167
      7 N          61.3087   87.5260   10.9843 N.am    1  UNL1       -0.1720
      8 C          61.5615   88.9967   10.8327 C.2     1  UNL1        0.3160
      9 O          60.6812   89.8211    9.9409 O.2     1  UNL1       -0.2638
     10 C          62.6947   89.6432   11.5730 C.2     1  UNL1        0.2907
     11 N          63.1838   91.0604   11.6207 N.2     1  UNL1       -0.0255
     12 C          64.3663   91.1119   12.5420 C.2     1  UNL1        0.3787
     13 N          64.6082   89.7266   13.0638 N.2     1  UNL1       -0.0302
     14 C          63.5751   88.8188   12.4649 C.2     1  UNL1        0.2419
     15 C          65.1665   92.3343   12.8819 C.ar    1  UNL1        0.1263
     16 C          65.4652   93.3536   11.8228 C.ar    1  UNL1        0.1484
     17 F          64.9638   93.1506   10.4237 F       1  UNL1       -0.2039
     18 C          66.2654   94.5759   12.1628 C.ar    1  UNL1        0.0300
     19 C          66.7669   94.7790   13.5618 C.ar    1  UNL1        0.0032
     20 C          66.4681   93.7597   14.6209 C.ar    1  UNL1        0.0118
     21 C          65.6679   92.5373   14.2809 C.ar    1  UNL1        0.0673
     22 CL         65.3692   91.5180   15.3401 Cl      1  UNL1       -0.0819
     23 C          61.8053   78.5235   13.5258 C.3     1  UNL1        0.0310
     24 C          62.0581   79.9943   13.3742 C.ar    1  UNL1       -0.0218
     25 C          62.7936   80.5089   12.1724 C.ar    1  UNL1       -0.0043
     26 C          63.0464   81.9797   12.0209 C.ar    1  UNL1       -0.0003
     27 C          62.5638   82.9358   13.0711 C.ar    1  UNL1        0.0000
     28 C          61.8284   82.4211   14.2729 C.ar    1  UNL1       -0.0003
     29 C          61.5755   80.9504   14.4244 C.ar    1  UNL1       -0.0043
@<TRIPOS>BOND
     1    23    24    1
     2    24    25   ar
     3    25    26   ar
     4    26    27   ar
     5    27     1    1
     6     1     2   ar
     7     2     3   ar
     8     3     4   ar
     9     4     5   ar
    10     5     6   ar
    11     5     7    2
    12     7     8    1
    13     8     9    2
    14     8    10    1
    15    10    11    2
    16    11    12    1
    17    12    15    1
    18    15    16   ar
    19    16    17    1
    20    16    18   ar
    21    18    19   ar
    22    19    20   ar
    23    20    21   ar
    24    21    22    1
    25    12    13    2
    26    13    14    1
    27    27    28   ar
    28    28    29   ar
    29    29    24   ar
    30     6     1   ar
    31    14    10    1
    32    14     4    2
    33    21    15   ar
@<TRIPOS>MOLECULE
*****
 29 33 0 0 0
SMALL
GASTEIGER

@<TRIPOS>ATOM
      1 C          60.1416   89.0190    7.5191 C.ar    1  UNL1        0.0013
      2 C          59.8972   87.5411    7.4415 C.ar    1  UNL1        0.0002
      3 C          60.4427   86.6339    8.5042 C.ar    1  UNL1        0.0051
      4 C          61.2325   87.2047    9.6446 C.ar    1  UNL1        0.0623
      5 C          61.4769   88.6826    9.7222 C.ar    1  UNL1        0.0775
      6 C          60.9314   89.5897    8.6594 C.ar    1  UNL1        0.0167
      7 N          62.2667   89.2533   10.8625 N.am    1  UNL1       -0.1720
      8 C          62.8122   88.3461   11.9253 C.2     1  UNL1        0.3160
      9 O          63.6020   88.9169   13.0656 O.2     1  UNL1       -0.2638
     10 C          62.5678   86.8682   11.8477 C.2     1  UNL1        0.2907
     11 N          62.9772   85.7349   12.7410 N.2     1  UNL1       -0.0255
     12 C          62.4404   84.4638   12.1528 C.2     1  UNL1        0.3787
     13 N          61.6993   84.8114   10.8959 N.2     1  UNL1       -0.0302
     14 C          61.7780   86.2974   10.7073 C.2     1  UNL1        0.2419
     15 C          62.6143   83.0867   12.7215 C.ar    1  UNL1        0.1263
     16 C          62.2196   82.8063   14.1412 C.ar    1  UNL1        0.1484
     17 F          61.6510   83.9030   14.9922 F       1  UNL1       -0.2039
     18 C          62.3934   81.4293   14.7100 C.ar    1  UNL1        0.0300
     19 C          62.9620   80.3326   13.8591 C.ar    1  UNL1        0.0032
     20 C          63.3567   80.6131   12.4394 C.ar    1  UNL1        0.0118
     21 C          63.1829   81.9901   11.8706 C.ar    1  UNL1        0.0673
     22 CL         63.5776   82.2705   10.4509 Cl      1  UNL1       -0.0819
     23 C          57.9598   92.6479    3.2680 C.3     1  UNL1        0.0310
     24 C          58.5052   91.7407    4.3308 C.ar    1  UNL1       -0.0218
     25 C          57.5681   91.0012    5.2391 C.ar    1  UNL1       -0.0043
     26 C          58.1135   90.0940    6.3018 C.ar    1  UNL1       -0.0003
     27 C          59.5961   89.9262    6.4563 C.ar    1  UNL1        0.0000
     28 C          60.5332   90.6657    5.5480 C.ar    1  UNL1       -0.0003
     29 C          59.9878   91.5729    4.4853 C.ar    1  UNL1       -0.0043
@<TRIPOS>BOND
     1    23    24    1
     2    24    25   ar
     3    25    26   ar
     4    26    27   ar
     5    27     1    1
     6     1     2   ar
     7     2     3   ar
     8     3     4   ar
     9     4     5   ar
    10     5     6   ar
    11     5     7    2
    12     7     8    1
    13     8     9    2
    14     8    10    1
    15    10    11    2
    16    11    12    1
    17    12    15    1
    18    15    16   ar
    19    16    17    1
    20    16    18   ar
    21    18    19   ar
    22    19    20   ar
    23    20    21   ar
    24    21    22    1
    25    12    13    2
    26    13    14    1
    27    27    28   ar
    28    28    29   ar
    29    29    24   ar
    30     6     1   ar
    31    14    10    1
    32    14     4    2
    33    21    15   ar
