@<TRIPOS>MOLECULE
*****
 29 32 0 0 0
SMALL
GASTEIGER

@<TRIPOS>ATOM
      1 N          65.6611   93.4121   11.1897 N.pl3   1  UNL1       -0.3017
      2 C          64.9700   92.2311   10.5750 C.3     1  UNL1        0.1124
      3 C          64.5137   91.0947   11.4412 C.3     1  UNL1        0.1152
      4 N          64.7483   91.1393   12.9221 N.am    1  UNL1       -0.2713
      5 C          64.2919   90.0029   13.7883 C.2     1  UNL1        0.2686
      6 O          64.5265   90.0475   15.2691 O.2     1  UNL1       -0.2682
      7 C          65.4393   92.3202   13.5368 C.3     1  UNL1        0.1152
      8 C          65.8957   93.4567   12.6705 C.3     1  UNL1        0.1124
      9 C          67.4804   94.5144    9.6981 C.ar    1  UNL1        0.1519
     10 C          67.9368   95.6508    8.8319 C.ar    1  UNL1        0.0382
     11 C          67.0301   96.8212    8.5910 C.ar    1  UNL1        0.0032
     12 C          65.6671   96.8553    9.2163 C.ar    1  UNL1        0.0015
     13 C          65.2108   95.7189   10.0825 C.ar    1  UNL1        0.0176
     14 C          66.1174   94.5485   10.3234 C.ar    1  UNL1        0.0824
     15 C          68.6273   92.3441    8.8470 C.3     1  UNL1        0.2525
     16 O          68.3871   93.3440    9.9390 O.3     1  UNL1       -0.4702
     17 C          63.6009   88.8219   13.1736 C.ar    1  UNL1        0.1557
     18 C          63.8901   87.3797   13.4677 C.ar    1  UNL1        0.0442
     19 C          62.9673   86.5423   12.6328 C.ar    1  UNL1        0.0796
     20 N          62.1077   87.4669   11.8227 N.ar    1  UNL1       -0.2487
     21 C          61.0434   87.0549   10.8493 C.3     1  UNL1        0.1537
     22 N          62.4993   88.8757   12.1570 N.ar    1  UNL1       -0.1646
     23 C          62.9136   85.0434   12.6117 C.ar    1  UNL1        0.0174
     24 C          63.1267   84.3034   11.3245 C.ar    1  UNL1        0.0023
     25 C          63.0730   82.8045   11.3033 C.ar    1  UNL1        0.0114
     26 C          62.8061   82.0457   12.5694 C.ar    1  UNL1        0.0577
     27 CL         62.7524   80.5467   12.5482 Cl      1  UNL1       -0.0822
     28 C          62.5930   82.7857   13.8566 C.ar    1  UNL1        0.0114
     29 C          62.6467   84.2845   13.8778 C.ar    1  UNL1        0.0023
@<TRIPOS>BOND
     1    15    16    1
     2    16     9    1
     3     9    10   ar
     4    10    11   ar
     5    11    12   ar
     6    12    13   ar
     7    13    14   ar
     8    14     1    1
     9     1     2    1
    10     2     3    1
    11     3     4    1
    12     4     5   am
    13     5     6    2
    14     5    17    1
    15    17    18   ar
    16    18    19   ar
    17    19    23    1
    18    23    24   ar
    19    24    25   ar
    20    25    26   ar
    21    26    27    1
    22    26    28   ar
    23    28    29   ar
    24    19    20   ar
    25    20    21    1
    26    20    22   ar
    27     4     7    1
    28     7     8    1
    29    14     9   ar
    30     8     1    1
    31    22    17   ar
    32    29    23   ar
@<TRIPOS>MOLECULE
*****
 29 32 0 0 0
SMALL
GASTEIGER

@<TRIPOS>ATOM
      1 N          62.3867   85.4592   12.2244 N.pl3   1  UNL1       -0.3017
      2 C          63.4770   86.4128   12.6140 C.3     1  UNL1        0.1124
      3 C          63.4137   87.8451   12.1729 C.3     1  UNL1        0.1152
      4 N          62.2601   88.3238   11.3422 N.am    1  UNL1       -0.2713
      5 C          62.1968   89.7561   10.9012 C.2     1  UNL1        0.2686
      6 O          61.0432   90.2347   10.0705 O.2     1  UNL1       -0.2682
      7 C          61.1698   87.3702   10.9526 C.3     1  UNL1        0.1152
      8 C          61.2331   85.9378   11.3937 C.3     1  UNL1        0.1124
      9 C          62.2182   83.6744   14.1048 C.ar    1  UNL1        0.1519
     10 C          62.2815   82.2421   14.5459 C.ar    1  UNL1        0.0382
     11 C          62.5768   81.1623   13.5475 C.ar    1  UNL1        0.0032
     12 C          62.8087   81.5148   12.1080 C.ar    1  UNL1        0.0015
     13 C          62.7453   82.9470   11.6670 C.ar    1  UNL1        0.0176
     14 C          62.4501   84.0269   12.6654 C.ar    1  UNL1        0.0824
     15 C          62.9787   85.1828   16.0787 C.3     1  UNL1        0.2525
     16 O          61.9229   84.7542   15.1032 O.3     1  UNL1       -0.4702
     17 C          63.2871   90.7097   11.2908 C.ar    1  UNL1        0.1557
     18 C          64.1423   90.6167   12.5196 C.ar    1  UNL1        0.0442
     19 C          65.0974   91.7733   12.5083 C.ar    1  UNL1        0.0796
     20 N          64.8324   92.5811   11.2725 N.ar    1  UNL1       -0.2487
     21 C          65.5587   93.8275   10.8613 C.3     1  UNL1        0.1537
     22 N          63.7136   91.9238   10.5201 N.ar    1  UNL1       -0.1646
     23 C          66.1352   92.0699   13.5499 C.ar    1  UNL1        0.0174
     24 C          67.5919   91.9830   13.2033 C.ar    1  UNL1        0.0023
     25 C          68.6298   92.2796   14.2448 C.ar    1  UNL1        0.0114
     26 C          68.2108   92.6632   15.6331 C.ar    1  UNL1        0.0577
     27 CL         69.2487   92.9598   16.6747 Cl      1  UNL1       -0.0822
     28 C          66.7540   92.7502   15.9797 C.ar    1  UNL1        0.0114
     29 C          65.7162   92.4536   14.9382 C.ar    1  UNL1        0.0023
@<TRIPOS>BOND
     1    15    16    1
     2    16     9    1
     3     9    10   ar
     4    10    11   ar
     5    11    12   ar
     6    12    13   ar
     7    13    14   ar
     8    14     1    1
     9     1     2    1
    10     2     3    1
    11     3     4    1
    12     4     5   am
    13     5     6    2
    14     5    17    1
    15    17    18   ar
    16    18    19   ar
    17    19    23    1
    18    23    24   ar
    19    24    25   ar
    20    25    26   ar
    21    26    27    1
    22    26    28   ar
    23    28    29   ar
    24    19    20   ar
    25    20    21    1
    26    20    22   ar
    27     4     7    1
    28     7     8    1
    29    14     9   ar
    30     8     1    1
    31    22    17   ar
    32    29    23   ar
@<TRIPOS>MOLECULE
*****
 29 32 0 0 0
SMALL
GASTEIGER

@<TRIPOS>ATOM
      1 N          62.4432   85.4611   12.2868 N.pl3   1  UNL1       -0.3017
      2 C          63.5199   86.4522   12.6159 C.3     1  UNL1        0.1124
      3 C          63.3932   87.8759   12.1611 C.3     1  UNL1        0.1152
      4 N          62.1898   88.3086   11.3770 N.am    1  UNL1       -0.2713
      5 C          62.0631   89.7323   10.9221 C.2     1  UNL1        0.2686
      6 O          60.8598   90.1648   10.1381 O.2     1  UNL1       -0.2682
      7 C          61.1131   87.3174   11.0479 C.3     1  UNL1        0.1152
      8 C          61.2398   85.8936   11.5028 C.3     1  UNL1        0.1124
      9 C          62.3886   83.6939   14.1906 C.ar    1  UNL1        0.1519
     10 C          62.5153   82.2702   14.6454 C.ar    1  UNL1        0.0382
     11 C          62.8233   81.1899   13.6514 C.ar    1  UNL1        0.0032
     12 C          63.0046   81.5332   12.2026 C.ar    1  UNL1        0.0015
     13 C          62.8779   82.9569   11.7478 C.ar    1  UNL1        0.0176
     14 C          62.5699   84.0373   12.7417 C.ar    1  UNL1        0.0824
     15 C          63.1663   85.3107   16.0697 C.3     1  UNL1        0.2525
     16 O          62.0807   84.7743   15.1846 O.3     1  UNL1       -0.4702
     17 C          63.1399   90.7234   11.2513 C.ar    1  UNL1        0.1557
     18 C          63.7580   91.7028   10.2980 C.ar    1  UNL1        0.0442
     19 C          64.7877   92.4938   11.0490 C.ar    1  UNL1        0.0796
     20 N          64.8059   92.0034   12.4665 N.ar    1  UNL1       -0.2487
     21 C          65.6876   92.5170   13.5659 C.3     1  UNL1        0.1537
     22 N          63.7875   90.9092   12.5914 N.ar    1  UNL1       -0.1646
     23 C          65.6481   93.5840   10.4821 C.ar    1  UNL1        0.0174
     24 C          66.8701   93.2367    9.6846 C.ar    1  UNL1        0.0023
     25 C          67.7305   94.3267    9.1177 C.ar    1  UNL1        0.0114
     26 C          67.3688   95.7641    9.3483 C.ar    1  UNL1        0.0577
     27 CL         68.2293   96.8542    8.7813 Cl      1  UNL1       -0.0822
     28 C          66.1468   96.1114   10.1458 C.ar    1  UNL1        0.0114
     29 C          65.2864   95.0213   10.7127 C.ar    1  UNL1        0.0023
@<TRIPOS>BOND
     1    15    16    1
     2    16     9    1
     3     9    10   ar
     4    10    11   ar
     5    11    12   ar
     6    12    13   ar
     7    13    14   ar
     8    14     1    1
     9     1     2    1
    10     2     3    1
    11     3     4    1
    12     4     5   am
    13     5     6    2
    14     5    17    1
    15    17    18   ar
    16    18    19   ar
    17    19    23    1
    18    23    24   ar
    19    24    25   ar
    20    25    26   ar
    21    26    27    1
    22    26    28   ar
    23    28    29   ar
    24    19    20   ar
    25    20    21    1
    26    20    22   ar
    27     4     7    1
    28     7     8    1
    29    14     9   ar
    30     8     1    1
    31    22    17   ar
    32    29    23   ar
@<TRIPOS>MOLECULE
*****
 29 32 0 0 0
SMALL
GASTEIGER

@<TRIPOS>ATOM
      1 N          63.1930   83.6529   13.5030 N.pl3   1  UNL1       -0.3017
      2 C          63.5821   85.0444   13.1003 C.3     1  UNL1        0.1124
      3 C          63.5753   86.1486   14.1155 C.3     1  UNL1        0.1152
      4 N          63.1794   85.8612   15.5335 N.am    1  UNL1       -0.2713
      5 C          63.1727   86.9654   16.5488 C.2     1  UNL1        0.2686
      6 O          62.7768   86.6780   17.9667 O.2     1  UNL1       -0.2682
      7 C          62.7904   84.4697   15.9363 C.3     1  UNL1        0.1152
      8 C          62.7972   83.3655   14.9210 C.3     1  UNL1        0.1124
      9 C          62.5444   81.2366   12.8022 C.ar    1  UNL1        0.1519
     10 C          62.5512   80.1325   11.7869 C.ar    1  UNL1        0.0382
     11 C          63.2134   80.3405   10.4571 C.ar    1  UNL1        0.0032
     12 C          63.8688   81.6525   10.1426 C.ar    1  UNL1        0.0015
     13 C          63.8619   82.7566   11.1579 C.ar    1  UNL1        0.0176
     14 C          63.1998   82.5487   12.4877 C.ar    1  UNL1        0.0824
     15 C          60.4383   80.6276   14.1962 C.3     1  UNL1        0.2525
     16 O          61.8823   81.0287   14.1319 O.3     1  UNL1       -0.4702
     17 C          63.5617   88.3569   16.1460 C.ar    1  UNL1        0.1557
     18 C          64.1958   88.7538   14.8458 C.ar    1  UNL1        0.0442
     19 C          64.4110   90.2381   14.8690 C.ar    1  UNL1        0.0796
     20 N          63.9099   90.7586   16.1835 N.ar    1  UNL1       -0.2487
     21 C          63.9302   92.1904   16.6304 C.3     1  UNL1        0.1537
     22 N          63.3851   89.5960   16.9727 N.ar    1  UNL1       -0.1646
     23 C          65.0203   91.0579   13.7705 C.ar    1  UNL1        0.0174
     24 C          64.2431   91.3268   12.5160 C.ar    1  UNL1        0.0023
     25 C          64.8523   92.1465   11.4175 C.ar    1  UNL1        0.0114
     26 C          66.2387   92.6974   11.5735 C.ar    1  UNL1        0.0577
     27 CL         66.8480   93.5173   10.4749 Cl      1  UNL1       -0.0822
     28 C          67.0159   92.4286   12.8280 C.ar    1  UNL1        0.0114
     29 C          66.4067   91.6088   13.9265 C.ar    1  UNL1        0.0023
@<TRIPOS>BOND
     1    15    16    1
     2    16     9    1
     3     9    10   ar
     4    10    11   ar
     5    11    12   ar
     6    12    13   ar
     7    13    14   ar
     8    14     1    1
     9     1     2    1
    10     2     3    1
    11     3     4    1
    12     4     5   am
    13     5     6    2
    14     5    17    1
    15    17    18   ar
    16    18    19   ar
    17    19    23    1
    18    23    24   ar
    19    24    25   ar
    20    25    26   ar
    21    26    27    1
    22    26    28   ar
    23    28    29   ar
    24    19    20   ar
    25    20    21    1
    26    20    22   ar
    27     4     7    1
    28     7     8    1
    29    14     9   ar
    30     8     1    1
    31    22    17   ar
    32    29    23   ar
@<TRIPOS>MOLECULE
*****
 29 32 0 0 0
SMALL
GASTEIGER

@<TRIPOS>ATOM
      1 N          66.0309   94.0649   11.6159 N.pl3   1  UNL1       -0.3017
      2 C          65.3464   92.7304   11.6394 C.3     1  UNL1        0.1124
      3 C          65.1560   92.0080   12.9401 C.3     1  UNL1        0.1152
      4 N          65.6501   92.6200   14.2174 N.am    1  UNL1       -0.2713
      5 C          65.4597   91.8976   15.5180 C.2     1  UNL1        0.2686
      6 O          65.9538   92.5097   16.7952 O.2     1  UNL1       -0.2682
      7 C          66.3347   93.9545   14.1938 C.3     1  UNL1        0.1152
      8 C          66.5251   94.6769   12.8931 C.3     1  UNL1        0.1124
      9 C          67.1624   94.2393    9.2836 C.ar    1  UNL1        0.1519
     10 C          67.3528   94.9617    7.9830 C.ar    1  UNL1        0.0382
     11 C          66.6021   96.2321    7.7138 C.ar    1  UNL1        0.0032
     12 C          65.6611   96.7801    8.7453 C.ar    1  UNL1        0.0015
     13 C          65.4707   96.0577   10.0460 C.ar    1  UNL1        0.0176
     14 C          66.2214   94.7873   10.3151 C.ar    1  UNL1        0.0824
     15 C          68.7841   92.3722    8.4873 C.3     1  UNL1        0.2525
     16 O          67.9131   92.9688    9.5528 O.3     1  UNL1       -0.4702
     17 C          64.7751   90.5631   15.5415 C.ar    1  UNL1        0.1557
     18 C          65.0168   89.4312   14.5874 C.ar    1  UNL1        0.0442
     19 C          64.1197   88.2948   14.9795 C.ar    1  UNL1        0.0796
     20 N          63.3236   88.7243   16.1760 N.ar    1  UNL1       -0.2487
     21 C          62.3017   87.8972   16.8983 C.3     1  UNL1        0.1537
     22 N          63.7286   90.1262   16.5233 N.ar    1  UNL1       -0.1646
     23 C          64.0339   86.9627   14.2952 C.ar    1  UNL1        0.0174
     24 C          64.7055   85.7649   14.8987 C.ar    1  UNL1        0.0023
     25 C          64.6198   84.4329   14.2145 C.ar    1  UNL1        0.0114
     26 C          63.8624   84.2986   12.9268 C.ar    1  UNL1        0.0577
     27 CL         63.7766   82.9665   12.2425 Cl      1  UNL1       -0.0822
     28 C          63.1908   85.4964   12.3233 C.ar    1  UNL1        0.0114
     29 C          63.2765   86.8285   13.0074 C.ar    1  UNL1        0.0023
@<TRIPOS>BOND
     1    15    16    1
     2    16     9    1
     3     9    10   ar
     4    10    11   ar
     5    11    12   ar
     6    12    13   ar
     7    13    14   ar
     8    14     1    1
     9     1     2    1
    10     2     3    1
    11     3     4    1
    12     4     5   am
    13     5     6    2
    14     5    17    1
    15    17    18   ar
    16    18    19   ar
    17    19    23    1
    18    23    24   ar
    19    24    25   ar
    20    25    26   ar
    21    26    27    1
    22    26    28   ar
    23    28    29   ar
    24    19    20   ar
    25    20    21    1
    26    20    22   ar
    27     4     7    1
    28     7     8    1
    29    14     9   ar
    30     8     1    1
    31    22    17   ar
    32    29    23   ar
@<TRIPOS>MOLECULE
*****
 29 32 0 0 0
SMALL
GASTEIGER

@<TRIPOS>ATOM
      1 N          65.4114   93.1110   11.2349 N.pl3   1  UNL1       -0.3017
      2 C          64.5385   92.3217   10.3048 C.3     1  UNL1        0.1124
      3 C          63.7752   91.1366   10.8174 C.3     1  UNL1        0.1152
      4 N          63.8847   90.7407   12.2601 N.am    1  UNL1       -0.2713
      5 C          63.1213   89.5556   12.7726 C.2     1  UNL1        0.2686
      6 O          63.2308   89.1598   14.2153 O.2     1  UNL1       -0.2682
      7 C          64.7575   91.5300   13.1902 C.3     1  UNL1        0.1152
      8 C          65.5209   92.7152   12.6776 C.3     1  UNL1        0.1124
      9 C          67.2511   94.1077    9.6947 C.ar    1  UNL1        0.1519
     10 C          68.0144   95.2928    9.1822 C.ar    1  UNL1        0.0382
     11 C          67.7014   96.6664    9.6972 C.ar    1  UNL1        0.0032
     12 C          66.6250   96.8549   10.7247 C.ar    1  UNL1        0.0015
     13 C          65.8617   95.6698   11.2373 C.ar    1  UNL1        0.0176
     14 C          66.1748   94.2962   10.7223 C.ar    1  UNL1        0.0824
     15 C          68.4204   91.8065    9.9899 C.3     1  UNL1        0.2525
     16 O          67.5641   92.7341    9.1798 O.3     1  UNL1       -0.4702
     17 C          62.2485   88.7663   11.8425 C.ar    1  UNL1        0.1557
     18 C          62.7176   87.9373   10.6838 C.ar    1  UNL1        0.0442
     19 C          61.5123   87.3260   10.0330 C.ar    1  UNL1        0.0796
     20 N          60.2982   87.7772   10.7895 N.ar    1  UNL1       -0.2487
     21 C          58.8784   87.4039   10.4817 C.3     1  UNL1        0.1537
     22 N          60.7532   88.6674   11.9078 N.ar    1  UNL1       -0.1646
     23 C          61.5199   86.4222    8.8359 C.ar    1  UNL1        0.0174
     24 C          60.2634   86.2181    8.0424 C.ar    1  UNL1        0.0023
     25 C          60.2709   85.3144    6.8453 C.ar    1  UNL1        0.0114
     26 C          61.5349   84.6147    6.4417 C.ar    1  UNL1        0.0577
     27 CL         61.5423   83.7109    5.2445 Cl      1  UNL1       -0.0822
     28 C          62.7913   84.8188    7.2352 C.ar    1  UNL1        0.0114
     29 C          62.7838   85.7225    8.4323 C.ar    1  UNL1        0.0023
@<TRIPOS>BOND
     1    15    16    1
     2    16     9    1
     3     9    10   ar
     4    10    11   ar
     5    11    12   ar
     6    12    13   ar
     7    13    14   ar
     8    14     1    1
     9     1     2    1
    10     2     3    1
    11     3     4    1
    12     4     5   am
    13     5     6    2
    14     5    17    1
    15    17    18   ar
    16    18    19   ar
    17    19    23    1
    18    23    24   ar
    19    24    25   ar
    20    25    26   ar
    21    26    27    1
    22    26    28   ar
    23    28    29   ar
    24    19    20   ar
    25    20    21    1
    26    20    22   ar
    27     4     7    1
    28     7     8    1
    29    14     9   ar
    30     8     1    1
    31    22    17   ar
    32    29    23   ar
@<TRIPOS>MOLECULE
*****
 29 32 0 0 0
SMALL
GASTEIGER

@<TRIPOS>ATOM
      1 N          61.9269   87.7818   10.3976 N.pl3   1  UNL1       -0.3017
      2 C          62.6279   89.0852   10.1529 C.3     1  UNL1        0.1124
      3 C          63.4065   89.7368   11.2570 C.3     1  UNL1        0.1152
      4 N          63.4842   89.0851   12.6058 N.am    1  UNL1       -0.2713
      5 C          64.2629   89.7367   13.7099 C.2     1  UNL1        0.2686
      6 O          64.3406   89.0850   15.0586 O.2     1  UNL1       -0.2682
      7 C          62.7833   87.7817   12.8505 C.3     1  UNL1        0.1152
      8 C          62.0046   87.1301   11.7463 C.3     1  UNL1        0.1124
      9 C          61.7551   86.0029    8.5119 C.ar    1  UNL1        0.1519
     10 C          60.9764   85.3513    7.4078 C.ar    1  UNL1        0.0382
     11 C          59.5909   85.8270    7.0853 C.ar    1  UNL1        0.0032
     12 C          58.9840   86.9543    7.8668 C.ar    1  UNL1        0.0015
     13 C          59.7627   87.6059    8.9709 C.ar    1  UNL1        0.0176
     14 C          61.1482   87.1301    9.2934 C.ar    1  UNL1        0.0824
     15 C          63.3371   84.2433    9.5848 C.3     1  UNL1        0.2525
     16 O          63.1406   85.5271    8.8344 O.3     1  UNL1       -0.4702
     17 C          64.9639   91.0401   13.4652 C.ar    1  UNL1        0.1557
     18 C          65.1753   91.6904   12.1302 C.ar    1  UNL1        0.0442
     19 C          65.9186   92.9743   12.3525 C.ar    1  UNL1        0.0796
     20 N          66.1665   93.1173   13.8249 N.ar    1  UNL1       -0.2487
     21 C          66.8793   94.2559   14.4925 C.3     1  UNL1        0.1537
     22 N          65.5765   91.9220   14.5126 N.ar    1  UNL1       -0.1646
     23 C          66.3400   93.9446   11.2890 C.ar    1  UNL1        0.0174
     24 C          66.1097   95.4143   11.4810 C.ar    1  UNL1        0.0023
     25 C          66.5310   96.3846   10.4176 C.ar    1  UNL1        0.0114
     26 C          67.1826   95.8853    9.1622 C.ar    1  UNL1        0.0577
     27 CL         67.6040   96.8557    8.0988 Cl      1  UNL1       -0.0822
     28 C          67.4129   94.4155    8.9703 C.ar    1  UNL1        0.0114
     29 C          66.9916   93.4452   10.0336 C.ar    1  UNL1        0.0023
@<TRIPOS>BOND
     1    15    16    1
     2    16     9    1
     3     9    10   ar
     4    10    11   ar
     5    11    12   ar
     6    12    13   ar
     7    13    14   ar
     8    14     1    1
     9     1     2    1
    10     2     3    1
    11     3     4    1
    12     4     5   am
    13     5     6    2
    14     5    17    1
    15    17    18   ar
    16    18    19   ar
    17    19    23    1
    18    23    24   ar
    19    24    25   ar
    20    25    26   ar
    21    26    27    1
    22    26    28   ar
    23    28    29   ar
    24    19    20   ar
    25    20    21    1
    26    20    22   ar
    27     4     7    1
    28     7     8    1
    29    14     9   ar
    30     8     1    1
    31    22    17   ar
    32    29    23   ar
@<TRIPOS>MOLECULE
*****
 29 32 0 0 0
SMALL
GASTEIGER

@<TRIPOS>ATOM
      1 N          62.0963   87.3369    9.8657 N.pl3   1  UNL1       -0.3017
      2 C          63.1004   88.4358    9.6809 C.3     1  UNL1        0.1124
      3 C          63.4197   89.3593   10.8189 C.3     1  UNL1        0.1152
      4 N          62.7348   89.1839   12.1419 N.am    1  UNL1       -0.2713
      5 C          63.0541   90.1074   13.2800 C.2     1  UNL1        0.2686
      6 O          62.3692   89.9320   14.6029 O.2     1  UNL1       -0.2682
      7 C          61.7307   88.0850   12.3268 C.3     1  UNL1        0.1152
      8 C          61.4115   87.1615   11.1887 C.3     1  UNL1        0.1124
      9 C          60.4413   86.4922    8.0498 C.ar    1  UNL1        0.1519
     10 C          60.1221   85.5687    6.9118 C.ar    1  UNL1        0.0382
     11 C          61.1387   84.5664    6.4515 C.ar    1  UNL1        0.0032
     12 C          62.4745   84.4875    7.1292 C.ar    1  UNL1        0.0015
     13 C          62.7937   85.4110    8.2673 C.ar    1  UNL1        0.0176
     14 C          61.7771   86.4134    8.7276 C.ar    1  UNL1        0.0824
     15 C          59.3629   88.8489    7.8685 C.3     1  UNL1        0.2525
     16 O          59.4247   87.4945    8.5101 O.3     1  UNL1       -0.4702
     17 C          64.0582   91.2063   13.0951 C.ar    1  UNL1        0.1557
     18 C          64.3430   91.9342   11.8149 C.ar    1  UNL1        0.0442
     19 C          65.4146   92.9480   12.0865 C.ar    1  UNL1        0.0796
     20 N          65.7921   92.8467   13.5347 N.ar    1  UNL1       -0.2487
     21 C          66.8264   93.6761   14.2364 C.3     1  UNL1        0.1537
     22 N          64.9538   91.7702   14.1580 N.ar    1  UNL1       -0.1646
     23 C          66.0050   93.8966   11.0857 C.ar    1  UNL1        0.0174
     24 C          66.9070   93.3801   10.0043 C.ar    1  UNL1        0.0023
     25 C          67.4974   94.3286    9.0035 C.ar    1  UNL1        0.0114
     26 C          67.1859   95.7936    9.0841 C.ar    1  UNL1        0.0577
     27 CL         67.7763   96.7422    8.0833 Cl      1  UNL1       -0.0822
     28 C          66.2838   96.3101   10.1656 C.ar    1  UNL1        0.0114
     29 C          65.6934   95.3617   11.1664 C.ar    1  UNL1        0.0023
@<TRIPOS>BOND
     1    15    16    1
     2    16     9    1
     3     9    10   ar
     4    10    11   ar
     5    11    12   ar
     6    12    13   ar
     7    13    14   ar
     8    14     1    1
     9     1     2    1
    10     2     3    1
    11     3     4    1
    12     4     5   am
    13     5     6    2
    14     5    17    1
    15    17    18   ar
    16    18    19   ar
    17    19    23    1
    18    23    24   ar
    19    24    25   ar
    20    25    26   ar
    21    26    27    1
    22    26    28   ar
    23    28    29   ar
    24    19    20   ar
    25    20    21    1
    26    20    22   ar
    27     4     7    1
    28     7     8    1
    29    14     9   ar
    30     8     1    1
    31    22    17   ar
    32    29    23   ar
