@<TRIPOS>MOLECULE
*****
 26 29 0 0 0
SMALL
GASTEIGER

@<TRIPOS>ATOM
      1 C          64.1079   89.3556   14.2964 C.ar    1  UNL1        0.0534
      2 C          63.4002   89.4680   12.9787 C.ar    1  UNL1        0.0045
      3 C          63.7113   90.6083   12.0551 C.ar    1  UNL1        0.0001
      4 C          64.7301   91.6361   12.4493 C.ar    1  UNL1       -0.0002
      5 C          65.0413   92.7764   11.5257 C.ar    1  UNL1       -0.0017
      6 C          66.0601   93.8043   11.9199 C.ar    1  UNL1        0.0071
      7 C          66.7678   93.6920   13.2377 C.ar    1  UNL1       -0.0017
      8 C          66.4567   92.5517   14.1613 C.ar    1  UNL1       -0.0002
      9 C          65.4378   91.5238   13.7670 C.ar    1  UNL1        0.0001
     10 C          65.1267   90.3835   14.6906 C.ar    1  UNL1        0.0045
     11 C          66.3712   94.9446   10.9963 C.3     1  UNL1        0.1432
     12 O          65.5707   95.7503   11.9761 O.3     1  UNL1       -0.3770
     13 C          66.5150   96.2533   10.2776 C.3     1  UNL1        0.0614
     14 C          67.3393   96.0180    9.0467 C.3     1  UNL1        0.1105
     15 N          67.7050   94.5639    9.0047 N.ar    1  UNL1       -0.3101
     16 C          68.4405   93.5197    8.2180 C.ar    1  UNL1        0.1784
     17 N          68.2968   92.2110    8.9367 N.ar    1  UNL1       -0.2226
     18 C          67.4724   92.4463   10.1676 C.ar    1  UNL1        0.1160
     19 C          67.1067   93.9005   10.2096 C.ar    1  UNL1        0.0859
     20 H          65.5376   96.6746   11.6839 H       1  UNL1        0.2112
     21 N          64.1938   86.8179   14.8465 N.am    1  UNL1       -0.3009
     22 C          63.7968   88.2153   15.2200 C.2     1  UNL1        0.2458
     23 O          63.0887   88.4725   16.5170 O.2     1  UNL1       -0.2701
     24 H          64.6585   86.6491   13.9951 H       1  UNL1        0.1497
     25 C          63.8669   84.2717   15.2471 C.3     1  UNL1        0.0230
     26 C          63.8826   85.6776   15.7700 C.3     1  UNL1        0.0898
@<TRIPOS>BOND
     1    25    26    1
     2    26    21    1
     3    21    22   am
     4    22    23    2
     5    22     1    1
     6     1     2   ar
     7     2     3   ar
     8     3     4   ar
     9     4     5   ar
    10     5     6   ar
    11     6    11    1
    12    11    12    1
    13    11    13    1
    14    13    14    1
    15    14    15    1
    16    15    16   ar
    17    16    17   ar
    18    17    18   ar
    19    18    19   ar
    20     6     7   ar
    21     7     8   ar
    22     8     9   ar
    23     9    10   ar
    24    10     1   ar
    25     9     4   ar
    26    19    11    1
    27    19    15   ar
    28    21    24    1
    29    12    20    1
@<TRIPOS>MOLECULE
*****
 26 29 0 0 0
SMALL
GASTEIGER

@<TRIPOS>ATOM
      1 C          64.1304   89.2281   13.5908 C.ar    1  UNL1        0.0534
      2 C          63.2797   88.8528   12.4138 C.ar    1  UNL1        0.0045
      3 C          62.8435   87.4299   12.2270 C.ar    1  UNL1        0.0001
      4 C          63.2581   86.3822   13.2171 C.ar    1  UNL1       -0.0002
      5 C          62.8219   84.9592   13.0303 C.ar    1  UNL1       -0.0017
      6 C          63.2365   83.9115   14.0204 C.ar    1  UNL1        0.0071
      7 C          64.0873   84.2867   15.1974 C.ar    1  UNL1       -0.0017
      8 C          64.5235   85.7097   15.3843 C.ar    1  UNL1       -0.0002
      9 C          64.1088   86.7574   14.3941 C.ar    1  UNL1        0.0001
     10 C          64.5450   88.1804   14.5809 C.ar    1  UNL1        0.0045
     11 C          62.8003   82.4885   13.8335 C.3     1  UNL1        0.1432
     12 O          62.2649   82.6350   15.2270 O.3     1  UNL1       -0.3770
     13 C          62.2522   81.0962   13.9379 C.3     1  UNL1        0.0614
     14 C          62.5400   80.3867   12.6481 C.3     1  UNL1        0.1105
     15 N          63.2661   81.3406   11.7464 N.ar    1  UNL1       -0.3101
     16 C          63.8927   81.4917   10.3920 C.ar    1  UNL1        0.1784
     17 N          64.4408   82.8840   10.2875 N.ar    1  UNL1       -0.2226
     18 C          64.1529   83.5935   11.5774 C.ar    1  UNL1        0.1160
     19 C          63.4269   82.6396   12.4791 C.ar    1  UNL1        0.0859
     20 H          61.8477   81.8036   15.5021 H       1  UNL1        0.2112
     21 N          65.7171   90.9697   14.6858 N.am    1  UNL1       -0.3009
     22 C          64.5666   90.6511   13.7777 C.2     1  UNL1        0.2458
     23 O          63.8523   91.7553   13.0564 O.2     1  UNL1       -0.2701
     24 H          66.1860   90.2450   15.1592 H       1  UNL1        0.1497
     25 C          66.9781   92.7737   16.0662 C.3     1  UNL1        0.0230
     26 C          66.1533   92.3927   14.8726 C.3     1  UNL1        0.0898
@<TRIPOS>BOND
     1    25    26    1
     2    26    21    1
     3    21    22   am
     4    22    23    2
     5    22     1    1
     6     1     2   ar
     7     2     3   ar
     8     3     4   ar
     9     4     5   ar
    10     5     6   ar
    11     6    11    1
    12    11    12    1
    13    11    13    1
    14    13    14    1
    15    14    15    1
    16    15    16   ar
    17    16    17   ar
    18    17    18   ar
    19    18    19   ar
    20     6     7   ar
    21     7     8   ar
    22     8     9   ar
    23     9    10   ar
    24    10     1   ar
    25     9     4   ar
    26    19    11    1
    27    19    15   ar
    28    21    24    1
    29    12    20    1
@<TRIPOS>MOLECULE
*****
 26 29 0 0 0
SMALL
GASTEIGER

@<TRIPOS>ATOM
      1 C          65.2367   92.1300   12.9865 C.ar    1  UNL1        0.0534
      2 C          65.4217   92.5313   11.5531 C.ar    1  UNL1        0.0045
      3 C          64.5001   91.9938   10.4988 C.ar    1  UNL1        0.0001
      4 C          63.3935   91.0548   10.8778 C.ar    1  UNL1       -0.0002
      5 C          62.4718   90.5173    9.8235 C.ar    1  UNL1       -0.0017
      6 C          61.3652   89.5783   10.2025 C.ar    1  UNL1        0.0071
      7 C          61.1801   89.1769   11.6359 C.ar    1  UNL1       -0.0017
      8 C          62.1018   89.7145   12.6903 C.ar    1  UNL1       -0.0002
      9 C          63.2084   90.6535   12.3112 C.ar    1  UNL1        0.0001
     10 C          64.1301   91.1910   13.3655 C.ar    1  UNL1        0.0045
     11 C          60.4436   89.0408    9.1481 C.3     1  UNL1        0.1432
     12 O          59.8033   90.3940    9.2409 O.3     1  UNL1       -0.3770
     13 C          59.3882   88.7861    8.1132 C.3     1  UNL1        0.0614
     14 C          59.5688   87.3878    7.6012 C.3     1  UNL1        0.1105
     15 N          60.7359   86.7783    8.3198 N.ar    1  UNL1       -0.3101
     16 C          61.5688   85.5373    8.4474 C.ar    1  UNL1        0.1784
     17 N          62.6243   85.7919    9.4824 N.ar    1  UNL1       -0.2226
     18 C          62.4437   87.1903    9.9943 C.ar    1  UNL1        0.1160
     19 C          61.2765   87.7998    9.2758 C.ar    1  UNL1        0.0859
     20 H          59.0593   90.4429    8.6205 H       1  UNL1        0.2112
     21 N          66.9118   91.7237   14.9304 N.am    1  UNL1       -0.3009
     22 C          66.1583   92.6675   14.0408 C.2     1  UNL1        0.2458
     23 O          66.3264   94.1489   14.2056 O.2     1  UNL1       -0.2701
     24 H          66.8015   90.7514   14.8223 H       1  UNL1        0.1497
     25 C          69.0851   92.9865   15.5879 C.3     1  UNL1        0.0230
     26 C          67.8334   92.2613   15.9848 C.3     1  UNL1        0.0898
@<TRIPOS>BOND
     1    25    26    1
     2    26    21    1
     3    21    22   am
     4    22    23    2
     5    22     1    1
     6     1     2   ar
     7     2     3   ar
     8     3     4   ar
     9     4     5   ar
    10     5     6   ar
    11     6    11    1
    12    11    12    1
    13    11    13    1
    14    13    14    1
    15    14    15    1
    16    15    16   ar
    17    16    17   ar
    18    17    18   ar
    19    18    19   ar
    20     6     7   ar
    21     7     8   ar
    22     8     9   ar
    23     9    10   ar
    24    10     1   ar
    25     9     4   ar
    26    19    11    1
    27    19    15   ar
    28    21    24    1
    29    12    20    1
@<TRIPOS>MOLECULE
*****
 26 29 0 0 0
SMALL
GASTEIGER

@<TRIPOS>ATOM
      1 C          63.8991   90.2154   14.7724 C.ar    1  UNL1        0.0534
      2 C          63.0553   90.2315   13.5324 C.ar    1  UNL1        0.0045
      3 C          63.5857   90.8487   12.2723 C.ar    1  UNL1        0.0001
      4 C          64.9598   91.4499   12.2524 C.ar    1  UNL1       -0.0002
      5 C          65.4902   92.0671   10.9923 C.ar    1  UNL1       -0.0017
      6 C          66.8643   92.6683   10.9724 C.ar    1  UNL1        0.0071
      7 C          67.7081   92.6522   12.2125 C.ar    1  UNL1       -0.0017
      8 C          67.1777   92.0350   13.4725 C.ar    1  UNL1       -0.0002
      9 C          65.8035   91.4338   13.4924 C.ar    1  UNL1        0.0001
     10 C          65.2731   90.8166   14.7525 C.ar    1  UNL1        0.0045
     11 C          67.3947   93.2855    9.7123 C.3     1  UNL1        0.1432
     12 O          67.9724   91.9220    9.4742 O.3     1  UNL1       -0.3770
     13 C          68.0458   93.6178    8.4025 C.3     1  UNL1        0.0614
     14 C          67.7596   95.0576    8.0946 C.3     1  UNL1        0.1105
     15 N          66.9316   95.6153    9.2141 N.ar    1  UNL1       -0.3101
     16 C          66.2429   96.8499    9.7157 C.ar    1  UNL1        0.1784
     17 N          65.5918   96.5178   11.0255 N.ar    1  UNL1       -0.2226
     18 C          65.8780   95.0779   11.3334 C.ar    1  UNL1        0.1160
     19 C          66.7060   94.5201   10.2139 C.ar    1  UNL1        0.0859
     20 H          68.4591   91.9191    8.6351 H       1  UNL1        0.2112
     21 N          63.2255   88.1086   16.1354 N.am    1  UNL1       -0.3009
     22 C          63.3687   89.5982   16.0325 C.2     1  UNL1        0.2458
     23 O          62.9814   90.4705   17.1896 O.2     1  UNL1       -0.2701
     24 H          63.4797   87.5360   15.3759 H       1  UNL1        0.1497
     25 C          62.6548   85.9988   17.5401 C.3     1  UNL1        0.0230
     26 C          62.6951   87.4913   17.3954 C.3     1  UNL1        0.0898
@<TRIPOS>BOND
     1    25    26    1
     2    26    21    1
     3    21    22   am
     4    22    23    2
     5    22     1    1
     6     1     2   ar
     7     2     3   ar
     8     3     4   ar
     9     4     5   ar
    10     5     6   ar
    11     6    11    1
    12    11    12    1
    13    11    13    1
    14    13    14    1
    15    14    15    1
    16    15    16   ar
    17    16    17   ar
    18    17    18   ar
    19    18    19   ar
    20     6     7   ar
    21     7     8   ar
    22     8     9   ar
    23     9    10   ar
    24    10     1   ar
    25     9     4   ar
    26    19    11    1
    27    19    15   ar
    28    21    24    1
    29    12    20    1
@<TRIPOS>MOLECULE
*****
 26 29 0 0 0
SMALL
GASTEIGER

@<TRIPOS>ATOM
      1 C          65.1954   91.4405   14.6630 C.ar    1  UNL1        0.0534
      2 C          64.1808   90.5433   15.3077 C.ar    1  UNL1        0.0045
      3 C          63.0994   89.9165   14.4785 C.ar    1  UNL1        0.0001
      4 C          63.0325   90.1869   13.0046 C.ar    1  UNL1       -0.0002
      5 C          61.9511   89.5601   12.1753 C.ar    1  UNL1       -0.0017
      6 C          61.8843   89.8305   10.7015 C.ar    1  UNL1        0.0071
      7 C          62.8989   90.7277   10.0567 C.ar    1  UNL1       -0.0017
      8 C          63.9803   91.3545   10.8860 C.ar    1  UNL1       -0.0002
      9 C          64.0471   91.0841   12.3599 C.ar    1  UNL1        0.0001
     10 C          65.1286   91.7109   13.1892 C.ar    1  UNL1        0.0045
     11 C          60.8028   89.2037    9.8722 C.3     1  UNL1        0.1432
     12 O          60.3493   90.6200    9.6768 O.3     1  UNL1       -0.3770
     13 C          59.6266   88.8730    9.0022 C.3     1  UNL1        0.0614
     14 C          59.5792   87.3833    8.8333 C.3     1  UNL1        0.1105
     15 N          60.7262   86.7933    9.5990 N.ar    1  UNL1       -0.3101
     16 C          61.4058   85.5080    9.9678 C.ar    1  UNL1        0.1784
     17 N          62.5821   85.8386   10.8379 N.ar    1  UNL1       -0.2226
     18 C          62.6294   87.3284   11.0068 C.ar    1  UNL1        0.1160
     19 C          61.4824   87.9184   10.2411 C.ar    1  UNL1        0.0859
     20 H          59.5595   90.6318    9.1137 H       1  UNL1        0.2112
     21 N          67.7112   91.9451   15.0708 N.am    1  UNL1       -0.3009
     22 C          66.2769   92.0673   15.4923 C.2     1  UNL1        0.2458
     23 O          65.9240   92.8162   16.7430 O.2     1  UNL1       -0.2701
     24 H          67.9428   91.4535   14.2498 H       1  UNL1        0.1497
     25 C          68.9470   94.0637   15.9277 C.3     1  UNL1        0.0230
     26 C          68.7926   92.5719   15.9000 C.3     1  UNL1        0.0898
@<TRIPOS>BOND
     1    25    26    1
     2    26    21    1
     3    21    22   am
     4    22    23    2
     5    22     1    1
     6     1     2   ar
     7     2     3   ar
     8     3     4   ar
     9     4     5   ar
    10     5     6   ar
    11     6    11    1
    12    11    12    1
    13    11    13    1
    14    13    14    1
    15    14    15    1
    16    15    16   ar
    17    16    17   ar
    18    17    18   ar
    19    18    19   ar
    20     6     7   ar
    21     7     8   ar
    22     8     9   ar
    23     9    10   ar
    24    10     1   ar
    25     9     4   ar
    26    19    11    1
    27    19    15   ar
    28    21    24    1
    29    12    20    1
@<TRIPOS>MOLECULE
*****
 26 29 0 0 0
SMALL
GASTEIGER

@<TRIPOS>ATOM
      1 C          62.1105   88.9595   10.4493 C.ar    1  UNL1        0.0534
      2 C          62.3159   88.0772   11.6448 C.ar    1  UNL1        0.0045
      3 C          63.1655   88.5485   12.7877 C.ar    1  UNL1        0.0001
      4 C          63.8097   89.9021   12.7350 C.ar    1  UNL1       -0.0002
      5 C          64.6592   90.3733   13.8778 C.ar    1  UNL1       -0.0017
      6 C          65.3034   91.7269   13.8252 C.ar    1  UNL1        0.0071
      7 C          65.0980   92.6093   12.6296 C.ar    1  UNL1       -0.0017
      8 C          64.2484   92.1380   11.4868 C.ar    1  UNL1       -0.0002
      9 C          63.6043   90.7844   11.5395 C.ar    1  UNL1        0.0001
     10 C          62.7547   90.3131   10.3966 C.ar    1  UNL1        0.0045
     11 C          66.1530   92.1982   14.9680 C.3     1  UNL1        0.1432
     12 O          64.8440   92.2999   15.6933 O.3     1  UNL1       -0.3770
     13 C          66.7289   92.6908   16.2625 C.3     1  UNL1        0.0614
     14 C          68.2162   92.7949   16.0983 C.3     1  UNL1        0.1105
     15 N          68.5595   92.3667   14.7023 N.ar    1  UNL1       -0.3101
     16 C          69.6910   92.1665   13.7380 C.ar    1  UNL1        0.1784
     17 N          69.1151   91.6739   12.4435 N.ar    1  UNL1       -0.2226
     18 C          67.6277   91.5698   12.6078 C.ar    1  UNL1        0.1160
     19 C          67.2844   91.9979   14.0037 C.ar    1  UNL1        0.0859
     20 H          64.9988   92.6173   16.5968 H       1  UNL1        0.2112
     21 N          60.3138   89.4377    8.6346 N.am    1  UNL1       -0.3009
     22 C          61.2610   88.4882    9.3064 C.2     1  UNL1        0.2458
     23 O          61.3585   87.0674    8.8354 O.2     1  UNL1       -0.2701
     24 H          60.2498   90.3702    8.9437 H       1  UNL1        0.1497
     25 C          59.3817   89.7790    6.2336 C.3     1  UNL1        0.0230
     26 C          59.4642   88.9664    7.4918 C.3     1  UNL1        0.0898
@<TRIPOS>BOND
     1    25    26    1
     2    26    21    1
     3    21    22   am
     4    22    23    2
     5    22     1    1
     6     1     2   ar
     7     2     3   ar
     8     3     4   ar
     9     4     5   ar
    10     5     6   ar
    11     6    11    1
    12    11    12    1
    13    11    13    1
    14    13    14    1
    15    14    15    1
    16    15    16   ar
    17    16    17   ar
    18    17    18   ar
    19    18    19   ar
    20     6     7   ar
    21     7     8   ar
    22     8     9   ar
    23     9    10   ar
    24    10     1   ar
    25     9     4   ar
    26    19    11    1
    27    19    15   ar
    28    21    24    1
    29    12    20    1
@<TRIPOS>MOLECULE
*****
 26 29 0 0 0
SMALL
GASTEIGER

@<TRIPOS>ATOM
      1 C          63.9883   89.1212   14.3678 C.ar    1  UNL1        0.0534
      2 C          63.2259   89.1793   13.0774 C.ar    1  UNL1        0.0045
      3 C          63.0000   87.9273   12.2827 C.ar    1  UNL1        0.0001
      4 C          63.5365   86.6172   12.7785 C.ar    1  UNL1       -0.0002
      5 C          63.3106   85.3652   11.9839 C.ar    1  UNL1       -0.0017
      6 C          63.8471   84.0552   12.4797 C.ar    1  UNL1        0.0071
      7 C          64.6096   83.9971   13.7702 C.ar    1  UNL1       -0.0017
      8 C          64.8355   85.2491   14.5648 C.ar    1  UNL1       -0.0002
      9 C          64.2989   86.5592   14.0690 C.ar    1  UNL1        0.0001
     10 C          64.5249   87.8112   14.8636 C.ar    1  UNL1        0.0045
     11 C          63.6212   82.8032   11.6850 C.3     1  UNL1        0.1432
     12 O          64.4553   83.4977   10.6497 O.3     1  UNL1       -0.3770
     13 C          63.5696   81.6964   10.6740 C.3     1  UNL1        0.0614
     14 C          62.7509   80.5796   11.2505 C.3     1  UNL1        0.1105
     15 N          62.2965   80.9962   12.6180 N.ar    1  UNL1       -0.3101
     16 C          61.5096   80.5634   13.8195 C.ar    1  UNL1        0.1784
     17 N          61.5611   81.6702   14.8306 N.ar    1  UNL1       -0.2226
     18 C          62.3799   82.7870   14.2540 C.ar    1  UNL1        0.1160
     19 C          62.8343   82.3704   12.8865 C.ar    1  UNL1        0.0859
     20 H          64.5500   82.9243    9.8730 H       1  UNL1        0.2112
     21 N          65.4462   91.1969   14.9303 N.am    1  UNL1       -0.3009
     22 C          64.2143   90.3732   15.1625 C.2     1  UNL1        0.2458
     23 O          63.2083   90.8016   16.1893 O.2     1  UNL1       -0.2701
     24 H          66.1064   90.9158   14.2563 H       1  UNL1        0.1497
     25 C          67.0638   92.8458   16.1197 C.3     1  UNL1        0.0230
     26 C          65.6721   92.4489   15.7249 C.3     1  UNL1        0.0898
@<TRIPOS>BOND
     1    25    26    1
     2    26    21    1
     3    21    22   am
     4    22    23    2
     5    22     1    1
     6     1     2   ar
     7     2     3   ar
     8     3     4   ar
     9     4     5   ar
    10     5     6   ar
    11     6    11    1
    12    11    12    1
    13    11    13    1
    14    13    14    1
    15    14    15    1
    16    15    16   ar
    17    16    17   ar
    18    17    18   ar
    19    18    19   ar
    20     6     7   ar
    21     7     8   ar
    22     8     9   ar
    23     9    10   ar
    24    10     1   ar
    25     9     4   ar
    26    19    11    1
    27    19    15   ar
    28    21    24    1
    29    12    20    1
@<TRIPOS>MOLECULE
*****
 26 29 0 0 0
SMALL
GASTEIGER

@<TRIPOS>ATOM
      1 C          61.4039   88.1462    9.7748 C.ar    1  UNL1        0.0534
      2 C          61.0363   89.5999    9.8165 C.ar    1  UNL1        0.0045
      3 C          61.5417   90.4697   10.9291 C.ar    1  UNL1        0.0001
      4 C          62.4148   89.8859   12.0000 C.ar    1  UNL1       -0.0002
      5 C          62.9202   90.7558   13.1126 C.ar    1  UNL1       -0.0017
      6 C          63.7933   90.1720   14.1835 C.ar    1  UNL1        0.0071
      7 C          64.1609   88.7183   14.1419 C.ar    1  UNL1       -0.0017
      8 C          63.6555   87.8484   13.0293 C.ar    1  UNL1       -0.0002
      9 C          62.7824   88.4323   11.9583 C.ar    1  UNL1        0.0001
     10 C          62.2770   87.5625   10.8457 C.ar    1  UNL1        0.0045
     11 C          64.2987   91.0418   15.2962 C.3     1  UNL1        0.1432
     12 O          63.2510   90.3407   16.1089 O.3     1  UNL1       -0.3770
     13 C          64.5852   91.7651   16.5786 C.3     1  UNL1        0.0614
     14 C          65.7042   92.7314   16.3259 C.3     1  UNL1        0.1105
     15 N          66.1094   92.6054   14.8872 N.ar    1  UNL1       -0.3101
     16 C          67.0515   93.1247   13.8419 C.ar    1  UNL1        0.1784
     17 N          66.7651   92.4015   12.5593 N.ar    1  UNL1       -0.2226
     18 C          65.6460   91.4351   12.8121 C.ar    1  UNL1        0.1160
     19 C          65.2408   91.5612   14.2508 C.ar    1  UNL1        0.0859
     20 H          63.2679   90.6778   17.0182 H       1  UNL1        0.2112
     21 N          61.6804   86.0677    8.2408 N.am    1  UNL1       -0.3009
     22 C          60.8985   87.2764    8.6622 C.2     1  UNL1        0.2458
     23 O          59.6111   87.6153    7.9709 O.2     1  UNL1       -0.2701
     24 H          62.5253   85.8453    8.6945 H       1  UNL1        0.1497
     25 C          62.1453   84.4826    6.2354 C.3     1  UNL1        0.0230
     26 C          61.1749   85.1979    7.1282 C.3     1  UNL1        0.0898
@<TRIPOS>BOND
     1    25    26    1
     2    26    21    1
     3    21    22   am
     4    22    23    2
     5    22     1    1
     6     1     2   ar
     7     2     3   ar
     8     3     4   ar
     9     4     5   ar
    10     5     6   ar
    11     6    11    1
    12    11    12    1
    13    11    13    1
    14    13    14    1
    15    14    15    1
    16    15    16   ar
    17    16    17   ar
    18    17    18   ar
    19    18    19   ar
    20     6     7   ar
    21     7     8   ar
    22     8     9   ar
    23     9    10   ar
    24    10     1   ar
    25     9     4   ar
    26    19    11    1
    27    19    15   ar
    28    21    24    1
    29    12    20    1
@<TRIPOS>MOLECULE
*****
 26 29 0 0 0
SMALL
GASTEIGER

@<TRIPOS>ATOM
      1 C          62.2698   89.4531   10.4312 C.ar    1  UNL1        0.0534
      2 C          62.6950   90.8218    9.9888 C.ar    1  UNL1        0.0045
      3 C          63.5715   91.6576   10.8739 C.ar    1  UNL1        0.0001
      4 C          64.0227   91.1246   12.2014 C.ar    1  UNL1       -0.0002
      5 C          64.8991   91.9603   13.0865 C.ar    1  UNL1       -0.0017
      6 C          65.3504   91.4273   14.4140 C.ar    1  UNL1        0.0071
      7 C          64.9251   90.0585   14.8564 C.ar    1  UNL1       -0.0017
      8 C          64.0487   89.2228   13.9713 C.ar    1  UNL1       -0.0002
      9 C          63.5975   89.7559   12.6438 C.ar    1  UNL1        0.0001
     10 C          62.7210   88.9201   11.7587 C.ar    1  UNL1        0.0045
     11 C          66.2268   92.2631   15.2991 C.3     1  UNL1        0.1432
     12 O          64.9978   92.3666   16.1526 O.3     1  UNL1       -0.3770
     13 C          66.8463   93.1204   16.3626 C.3     1  UNL1        0.0614
     14 C          68.2750   93.3721   15.9813 C.3     1  UNL1        0.1105
     15 N          68.5385   92.6702   14.6820 N.ar    1  UNL1       -0.3101
     16 C          69.5844   92.3920   13.6434 C.ar    1  UNL1        0.1784
     17 N          68.9649   91.5346   12.5798 N.ar    1  UNL1       -0.2226
     18 C          67.5362   91.2830   12.9612 C.ar    1  UNL1        0.1160
     19 C          67.2727   91.9848   14.2604 C.ar    1  UNL1        0.0859
     20 H          65.1914   92.9078   16.9339 H       1  UNL1        0.2112
     21 N          61.5401   87.1246    9.5392 N.am    1  UNL1       -0.3009
     22 C          61.3934   88.6174    9.5461 C.2     1  UNL1        0.2458
     23 O          60.3702   89.2744    8.6678 O.2     1  UNL1       -0.2701
     24 H          62.2116   86.6934   10.1157 H       1  UNL1        0.1497
     25 C          61.2542   85.5688    7.4782 C.3     1  UNL1        0.0230
     26 C          60.6636   86.2889    8.6541 C.3     1  UNL1        0.0898
@<TRIPOS>BOND
     1    25    26    1
     2    26    21    1
     3    21    22   am
     4    22    23    2
     5    22     1    1
     6     1     2   ar
     7     2     3   ar
     8     3     4   ar
     9     4     5   ar
    10     5     6   ar
    11     6    11    1
    12    11    12    1
    13    11    13    1
    14    13    14    1
    15    14    15    1
    16    15    16   ar
    17    16    17   ar
    18    17    18   ar
    19    18    19   ar
    20     6     7   ar
    21     7     8   ar
    22     8     9   ar
    23     9    10   ar
    24    10     1   ar
    25     9     4   ar
    26    19    11    1
    27    19    15   ar
    28    21    24    1
    29    12    20    1
