@<TRIPOS>MOLECULE
*****
 37 41 0 0 0
SMALL
GASTEIGER

@<TRIPOS>ATOM
      1 N          63.2820   89.8720   13.0705 N.3     1  UNL1       -0.2679
      2 C          64.0505   90.9835   12.4195 C.3     1  UNL1        0.0978
      3 C          63.8839   91.2520   10.9532 C.3     1  UNL1        0.0224
      4 C          64.6524   92.3635   10.3022 C.3     1  UNL1        0.0065
      5 C          65.5876   93.2065   11.1174 C.3     1  UNL1        0.0277
      6 C          65.7543   92.9380   12.5837 C.ar    1  UNL1       -0.0073
      7 C          66.6895   93.7810   13.3991 C.ar    1  UNL1       -0.0015
      8 C          66.8562   93.5125   14.8654 C.ar    1  UNL1        0.0203
      9 C          66.0876   92.4010   15.5164 C.ar    1  UNL1        0.0985
     10 N          65.1524   91.5580   14.7011 N.ar    1  UNL1       -0.2471
     11 C          64.9857   91.8265   13.2348 C.ar    1  UNL1        0.0695
     12 C          63.9649   88.9579   14.0442 C.3     1  UNL1        0.0725
     13 C          63.9064   87.4722   13.8460 C.3     1  UNL1        0.0188
     14 C          64.6157   86.5595   14.8019 C.3     1  UNL1        0.0185
     15 C          63.8516   85.4899   15.5245 C.3     1  UNL1        0.0686
     16 N          62.5970   84.9285   14.9238 N.3     1  UNL1       -0.2985
     17 H          62.0122   84.6183   15.6998 H       1  UNL1        0.1232
     18 F          63.1449   81.2324   10.5787 F       1  UNL1       -0.2043
     19 C          62.8316   81.4976   12.0214 C.3     1  UNL1        0.2640
     20 F          62.6381   80.0107   11.9819 F       1  UNL1       -0.2043
     21 C          62.4511   81.2464   13.4504 C.3     1  UNL1        0.0679
     22 C          62.3728   82.3901   14.4179 C.3     1  UNL1        0.0213
     23 C          62.6752   83.7849   13.9564 C.3     1  UNL1        0.0543
     24 C          63.0557   84.0361   12.5273 C.3     1  UNL1        0.0213
     25 C          63.1339   82.8925   11.5599 C.3     1  UNL1        0.0679
     26 C          61.8305   89.6745   12.7479 C.3     1  UNL1        0.0886
     27 C          61.4323   88.9094   11.5206 C.3     1  UNL1        0.0748
     28 C          62.3222   87.8238   10.9919 C.3     1  UNL1        0.0432
     29 C          61.9240   87.0587    9.7646 C.ar    1  UNL1       -0.0234
     30 C          62.8139   85.9731    9.2360 C.ar    1  UNL1       -0.0045
     31 C          62.4157   85.2081    8.0087 C.ar    1  UNL1       -0.0003
     32 C          61.1276   85.5288    7.3101 C.ar    1  UNL1       -0.0003
     33 C          60.2378   86.6144    7.8387 C.ar    1  UNL1       -0.0032
     34 C          60.6359   87.3794    9.0660 C.ar    1  UNL1       -0.0103
     35 C          59.7460   88.4651    9.5947 C.3     1  UNL1        0.0953
     36 N          60.1442   89.2300   10.8219 N.3     1  UNL1       -0.2934
     37 H          59.3983   89.0995   11.5052 H       1  UNL1        0.1236
@<TRIPOS>BOND
     1    18    19    1
     2    19    20    1
     3    19    21    1
     4    21    22    1
     5    22    23    1
     6    23    16    1
     7    16    15    1
     8    15    14    1
     9    14    13    1
    10    13    12    1
    11    12     1    1
    12     1    26    1
    13    27    26    1
    14    27    28    1
    15    28    29    1
    16    29    30   ar
    17    30    31   ar
    18    31    32   ar
    19    32    33   ar
    20    33    34   ar
    21    34    35    1
    22    35    36    1
    23     2     1    1
    24     2     3    1
    25     3     4    1
    26     4     5    1
    27     5     6    1
    28     6     7   ar
    29     7     8   ar
    30     8     9   ar
    31     9    10   ar
    32    10    11   ar
    33    23    24    1
    34    24    25    1
    35    25    19    1
    36    36    27    1
    37    11     2    1
    38    34    29   ar
    39    11     6   ar
    40    16    17    1
    41    36    37    1
@<TRIPOS>MOLECULE
*****
 37 41 0 0 0
SMALL
GASTEIGER

@<TRIPOS>ATOM
      1 N          63.3798   88.8118   13.6138 N.3     1  UNL1       -0.2679
      2 C          62.9499   89.1491   12.2168 C.3     1  UNL1        0.0978
      3 C          63.1088   90.5484   11.7005 C.3     1  UNL1        0.0224
      4 C          62.6790   90.8858   10.3036 C.3     1  UNL1        0.0065
      5 C          62.0902   89.8238    9.4230 C.3     1  UNL1        0.0277
      6 C          61.9313   88.4245    9.9393 C.ar    1  UNL1       -0.0073
      7 C          61.3425   87.3625    9.0586 C.ar    1  UNL1       -0.0015
      8 C          61.1836   85.9632    9.5749 C.ar    1  UNL1        0.0203
      9 C          61.6134   85.6258   10.9719 C.ar    1  UNL1        0.0985
     10 N          62.2022   86.6878   11.8525 N.ar    1  UNL1       -0.2471
     11 C          62.3611   88.0872   11.3362 C.ar    1  UNL1        0.0695
     12 C          64.0180   87.4854   13.9024 C.3     1  UNL1        0.0725
     13 C          64.1537   87.0107   15.3189 C.3     1  UNL1        0.0188
     14 C          64.2748   85.5442   15.6100 C.3     1  UNL1        0.0185
     15 C          63.0473   84.6829   15.6465 C.3     1  UNL1        0.0686
     16 N          63.1394   83.2303   15.2840 N.3     1  UNL1       -0.2985
     17 H          63.9334   82.8483   15.7979 H       1  UNL1        0.1232
     18 F          63.2312   80.9399   10.0317 F       1  UNL1       -0.2043
     19 C          63.6679   82.0133   10.9841 C.3     1  UNL1        0.2640
     20 F          64.3746   82.4652    9.7405 F       1  UNL1       -0.2043
     21 C          64.3500   83.2436   11.5046 C.3     1  UNL1        0.0679
     22 C          64.1739   83.6493   12.9379 C.3     1  UNL1        0.0213
     23 C          63.3156   82.8246   13.8507 C.3     1  UNL1        0.0543
     24 C          62.6334   81.5942   13.3301 C.3     1  UNL1        0.0213
     25 C          62.8096   81.1886   11.8968 C.3     1  UNL1        0.0679
     26 C          63.1714   89.8007   14.7221 C.3     1  UNL1        0.0886
     27 C          64.2860   90.7193   15.1271 C.3     1  UNL1        0.0748
     28 C          65.5762   90.7158   14.3621 C.3     1  UNL1        0.0432
     29 C          66.6908   91.6343   14.7671 C.ar    1  UNL1       -0.0234
     30 C          67.9811   91.6308   14.0021 C.ar    1  UNL1       -0.0045
     31 C          69.0956   92.5493   14.4071 C.ar    1  UNL1       -0.0003
     32 C          68.9199   93.4714   15.5771 C.ar    1  UNL1       -0.0003
     33 C          67.6296   93.4750   16.3421 C.ar    1  UNL1       -0.0032
     34 C          66.5151   92.5564   15.9371 C.ar    1  UNL1       -0.0103
     35 C          65.2248   92.5600   16.7021 C.3     1  UNL1        0.0953
     36 N          64.1103   91.6414   16.2970 N.3     1  UNL1       -0.2934
     37 H          63.3040   92.2306   16.0891 H       1  UNL1        0.1236
@<TRIPOS>BOND
     1    18    19    1
     2    19    20    1
     3    19    21    1
     4    21    22    1
     5    22    23    1
     6    23    16    1
     7    16    15    1
     8    15    14    1
     9    14    13    1
    10    13    12    1
    11    12     1    1
    12     1    26    1
    13    27    26    1
    14    27    28    1
    15    28    29    1
    16    29    30   ar
    17    30    31   ar
    18    31    32   ar
    19    32    33   ar
    20    33    34   ar
    21    34    35    1
    22    35    36    1
    23     2     1    1
    24     2     3    1
    25     3     4    1
    26     4     5    1
    27     5     6    1
    28     6     7   ar
    29     7     8   ar
    30     8     9   ar
    31     9    10   ar
    32    10    11   ar
    33    23    24    1
    34    24    25    1
    35    25    19    1
    36    36    27    1
    37    11     2    1
    38    34    29   ar
    39    11     6   ar
    40    16    17    1
    41    36    37    1
@<TRIPOS>MOLECULE
*****
 37 41 0 0 0
SMALL
GASTEIGER

@<TRIPOS>ATOM
      1 N          63.7720   89.9467   13.5841 N.3     1  UNL1       -0.2679
      2 C          64.7115   91.0732   13.8975 C.3     1  UNL1        0.0978
      3 C          65.2294   91.2514   15.2939 C.3     1  UNL1        0.0224
      4 C          66.1690   92.3779   15.6073 C.3     1  UNL1        0.0065
      5 C          66.5907   93.3262   14.5243 C.3     1  UNL1        0.0277
      6 C          66.0728   93.1479   13.1279 C.ar    1  UNL1       -0.0073
      7 C          66.4946   94.0962   12.0448 C.ar    1  UNL1       -0.0015
      8 C          65.9767   93.9179   10.6484 C.ar    1  UNL1        0.0203
      9 C          65.0371   92.7914   10.3350 C.ar    1  UNL1        0.0985
     10 N          64.6154   91.8432   11.4180 N.ar    1  UNL1       -0.2471
     11 C          65.1333   92.0214   12.8145 C.ar    1  UNL1        0.0695
     12 C          64.2564   88.5282   13.6408 C.3     1  UNL1        0.0725
     13 C          64.2697   87.7919   14.9477 C.3     1  UNL1        0.0188
     14 C          64.5721   86.3231   14.9778 C.3     1  UNL1        0.0185
     15 C          63.6401   85.3797   15.6788 C.3     1  UNL1        0.0686
     16 N          62.4223   84.8642   14.9708 N.3     1  UNL1       -0.2985
     17 H          61.7703   84.5566   15.6924 H       1  UNL1        0.1232
     18 F          63.0738   81.2483   10.5729 F       1  UNL1       -0.2043
     19 C          62.7941   81.4800   12.0282 C.3     1  UNL1        0.2640
     20 F          62.7043   79.9835   11.9808 F       1  UNL1       -0.2043
     21 C          62.4833   81.1920   13.4671 C.3     1  UNL1        0.0679
     22 C          62.3593   82.3201   14.4480 C.3     1  UNL1        0.0213
     23 C          62.5462   83.7361   13.9900 C.3     1  UNL1        0.0543
     24 C          62.8571   84.0242   12.5510 C.3     1  UNL1        0.0213
     25 C          62.9811   82.8961   11.5702 C.3     1  UNL1        0.0679
     26 C          62.3480   90.2387   13.2140 C.3     1  UNL1        0.0886
     27 C          61.7502   89.6193   11.9855 C.3     1  UNL1        0.0748
     28 C          62.3103   88.3378   11.4433 C.3     1  UNL1        0.0432
     29 C          61.7125   87.7185   10.2148 C.ar    1  UNL1       -0.0234
     30 C          62.2726   86.4370    9.6726 C.ar    1  UNL1       -0.0045
     31 C          61.6748   85.8177    8.4441 C.ar    1  UNL1       -0.0003
     32 C          60.5170   86.4799    7.7579 C.ar    1  UNL1       -0.0003
     33 C          59.9570   87.7614    8.3001 C.ar    1  UNL1       -0.0032
     34 C          60.5547   88.3807    9.5285 C.ar    1  UNL1       -0.0103
     35 C          59.9947   89.6623   10.0708 C.3     1  UNL1        0.0953
     36 N          60.5924   90.2816   11.2993 N.3     1  UNL1       -0.2934
     37 H          59.8432   90.3521   11.9878 H       1  UNL1        0.1236
@<TRIPOS>BOND
     1    18    19    1
     2    19    20    1
     3    19    21    1
     4    21    22    1
     5    22    23    1
     6    23    16    1
     7    16    15    1
     8    15    14    1
     9    14    13    1
    10    13    12    1
    11    12     1    1
    12     1    26    1
    13    27    26    1
    14    27    28    1
    15    28    29    1
    16    29    30   ar
    17    30    31   ar
    18    31    32   ar
    19    32    33   ar
    20    33    34   ar
    21    34    35    1
    22    35    36    1
    23     2     1    1
    24     2     3    1
    25     3     4    1
    26     4     5    1
    27     5     6    1
    28     6     7   ar
    29     7     8   ar
    30     8     9   ar
    31     9    10   ar
    32    10    11   ar
    33    23    24    1
    34    24    25    1
    35    25    19    1
    36    36    27    1
    37    11     2    1
    38    34    29   ar
    39    11     6   ar
    40    16    17    1
    41    36    37    1
@<TRIPOS>MOLECULE
*****
 37 41 0 0 0
SMALL
GASTEIGER

@<TRIPOS>ATOM
      1 N          65.2257   92.3749   12.0515 N.3     1  UNL1       -0.2679
      2 C          66.3158   92.7292   11.0839 C.3     1  UNL1        0.0978
      3 C          67.3827   91.7271   10.7564 C.3     1  UNL1        0.0224
      4 C          68.4728   92.0813    9.7888 C.3     1  UNL1        0.0065
      5 C          68.4959   93.4377    9.1488 C.3     1  UNL1        0.0277
      6 C          67.4290   94.4398    9.4763 C.ar    1  UNL1       -0.0073
      7 C          67.4521   95.7963    8.8363 C.ar    1  UNL1       -0.0015
      8 C          66.3852   96.7984    9.1638 C.ar    1  UNL1        0.0203
      9 C          65.2951   96.4441   10.1314 C.ar    1  UNL1        0.0985
     10 N          65.2719   95.0878   10.7714 N.ar    1  UNL1       -0.2471
     11 C          66.3389   94.0856   10.4439 C.ar    1  UNL1        0.0695
     12 C          63.8528   92.0438   11.5462 C.3     1  UNL1        0.0725
     13 C          63.4541   90.6123   11.3411 C.3     1  UNL1        0.0188
     14 C          62.4798   90.2529   10.2588 C.3     1  UNL1        0.0185
     15 C          61.4805   89.1570   10.4830 C.3     1  UNL1        0.0686
     16 N          61.3714   88.0288    9.5004 N.3     1  UNL1       -0.2985
     17 H          60.3761   87.8502    9.3663 H       1  UNL1        0.1232
     18 F          64.0341   82.9587    9.7122 F       1  UNL1       -0.2043
     19 C          63.2923   84.0617   10.4072 C.3     1  UNL1        0.2640
     20 F          63.5314   83.1388   11.5651 F       1  UNL1       -0.2043
     21 C          62.6335   84.8442   11.5043 C.3     1  UNL1        0.0679
     22 C          61.9931   86.1666   11.2020 C.3     1  UNL1        0.0213
     23 C          62.0117   86.7065    9.8027 C.3     1  UNL1        0.0543
     24 C          62.6705   85.9239    8.7055 C.3     1  UNL1        0.0213
     25 C          63.3108   84.6016    9.0078 C.3     1  UNL1        0.0679
     26 C          65.5085   92.3518   13.5244 C.3     1  UNL1        0.0886
     27 C          64.8651   91.3139   14.3955 C.3     1  UNL1        0.0748
     28 C          65.0375   89.8578   14.0795 C.3     1  UNL1        0.0432
     29 C          64.3941   88.8199   14.9506 C.ar    1  UNL1       -0.0234
     30 C          64.5666   87.3638   14.6345 C.ar    1  UNL1       -0.0045
     31 C          63.9231   86.3260   15.5056 C.ar    1  UNL1       -0.0003
     32 C          63.1072   86.7443   16.6928 C.ar    1  UNL1       -0.0003
     33 C          62.9347   88.2004   17.0088 C.ar    1  UNL1       -0.0032
     34 C          63.5781   89.2382   16.1377 C.ar    1  UNL1       -0.0103
     35 C          63.4057   90.6944   16.4537 C.3     1  UNL1        0.0953
     36 N          64.0491   91.7322   15.5826 N.3     1  UNL1       -0.2934
     37 H          64.6637   92.2812   16.1837 H       1  UNL1        0.1236
@<TRIPOS>BOND
     1    18    19    1
     2    19    20    1
     3    19    21    1
     4    21    22    1
     5    22    23    1
     6    23    16    1
     7    16    15    1
     8    15    14    1
     9    14    13    1
    10    13    12    1
    11    12     1    1
    12     1    26    1
    13    27    26    1
    14    27    28    1
    15    28    29    1
    16    29    30   ar
    17    30    31   ar
    18    31    32   ar
    19    32    33   ar
    20    33    34   ar
    21    34    35    1
    22    35    36    1
    23     2     1    1
    24     2     3    1
    25     3     4    1
    26     4     5    1
    27     5     6    1
    28     6     7   ar
    29     7     8   ar
    30     8     9   ar
    31     9    10   ar
    32    10    11   ar
    33    23    24    1
    34    24    25    1
    35    25    19    1
    36    36    27    1
    37    11     2    1
    38    34    29   ar
    39    11     6   ar
    40    16    17    1
    41    36    37    1
@<TRIPOS>MOLECULE
*****
 37 41 0 0 0
SMALL
GASTEIGER

@<TRIPOS>ATOM
      1 N          64.2087   90.2417   14.3820 N.3     1  UNL1       -0.2679
      2 C          65.1365   91.4203   14.3680 C.3     1  UNL1        0.0978
      3 C          65.8490   91.8289   15.6231 C.3     1  UNL1        0.0224
      4 C          66.7767   93.0075   15.6090 C.3     1  UNL1        0.0065
      5 C          66.9919   93.7775   14.3399 C.3     1  UNL1        0.0277
      6 C          66.2795   93.3689   13.0848 C.ar    1  UNL1       -0.0073
      7 C          66.4947   94.1389   11.8156 C.ar    1  UNL1       -0.0015
      8 C          65.7822   93.7302   10.5605 C.ar    1  UNL1        0.0203
      9 C          64.8545   92.5516   10.5745 C.ar    1  UNL1        0.0985
     10 N          64.6392   91.7817   11.8436 N.ar    1  UNL1       -0.2471
     11 C          65.3517   92.1903   13.0988 C.ar    1  UNL1        0.0695
     12 C          63.5989   89.7519   13.1021 C.3     1  UNL1        0.0725
     13 C          62.1083   89.7492   12.9343 C.3     1  UNL1        0.0188
     14 C          61.5064   89.9364   11.5732 C.3     1  UNL1        0.0185
     15 C          60.1919   89.2955   11.2399 C.3     1  UNL1        0.0686
     16 N          60.0203   87.8130   11.3919 N.3     1  UNL1       -0.2985
     17 H          60.0908   87.6091   12.3888 H       1  UNL1        0.1232
     18 F          63.2758   84.6423    7.9005 F       1  UNL1       -0.2043
     19 C          62.8285   84.9957    9.2880 C.3     1  UNL1        0.2640
     20 F          63.8154   83.9103    9.6010 F       1  UNL1       -0.2043
     21 C          62.7240   84.9721   10.7841 C.3     1  UNL1        0.0679
     22 C          61.7879   85.9112   11.4855 C.3     1  UNL1        0.0213
     23 C          60.9564   86.8739   10.6906 C.3     1  UNL1        0.0543
     24 C          61.0609   86.8974    9.1944 C.3     1  UNL1        0.0213
     25 C          61.9970   85.9583    8.4931 C.3     1  UNL1        0.0679
     26 C          63.8908   89.5528   15.6759 C.3     1  UNL1        0.0886
     27 C          63.6561   88.0714   15.6991 C.3     1  UNL1        0.0748
     28 C          64.3157   87.1916   14.6789 C.3     1  UNL1        0.0432
     29 C          64.0810   85.7102   14.7020 C.ar    1  UNL1       -0.0234
     30 C          64.7405   84.8303   13.6819 C.ar    1  UNL1       -0.0045
     31 C          64.5058   83.3490   13.7050 C.ar    1  UNL1       -0.0003
     32 C          63.6115   82.7475   14.7484 C.ar    1  UNL1       -0.0003
     33 C          62.9520   83.6274   15.7686 C.ar    1  UNL1       -0.0032
     34 C          63.1867   85.1087   15.7454 C.ar    1  UNL1       -0.0103
     35 C          62.5272   85.9887   16.7656 C.3     1  UNL1        0.0953
     36 N          62.7619   87.4700   16.7424 N.3     1  UNL1       -0.2934
     37 H          63.1576   87.7196   17.6488 H       1  UNL1        0.1236
@<TRIPOS>BOND
     1    18    19    1
     2    19    20    1
     3    19    21    1
     4    21    22    1
     5    22    23    1
     6    23    16    1
     7    16    15    1
     8    15    14    1
     9    14    13    1
    10    13    12    1
    11    12     1    1
    12     1    26    1
    13    27    26    1
    14    27    28    1
    15    28    29    1
    16    29    30   ar
    17    30    31   ar
    18    31    32   ar
    19    32    33   ar
    20    33    34   ar
    21    34    35    1
    22    35    36    1
    23     2     1    1
    24     2     3    1
    25     3     4    1
    26     4     5    1
    27     5     6    1
    28     6     7   ar
    29     7     8   ar
    30     8     9   ar
    31     9    10   ar
    32    10    11   ar
    33    23    24    1
    34    24    25    1
    35    25    19    1
    36    36    27    1
    37    11     2    1
    38    34    29   ar
    39    11     6   ar
    40    16    17    1
    41    36    37    1
@<TRIPOS>MOLECULE
*****
 37 41 0 0 0
SMALL
GASTEIGER

@<TRIPOS>ATOM
      1 N          64.1953   88.4577   14.1724 N.3     1  UNL1       -0.2679
      2 C          64.2515   89.6874   15.0295 C.3     1  UNL1        0.0978
      3 C          63.3550   89.8094   16.2258 C.3     1  UNL1        0.0224
      4 C          63.4113   91.0391   17.0829 C.3     1  UNL1        0.0065
      5 C          64.3641   92.1468   16.7437 C.3     1  UNL1        0.0277
      6 C          65.2607   92.0248   15.5474 C.ar    1  UNL1       -0.0073
      7 C          66.2136   93.1325   15.2081 C.ar    1  UNL1       -0.0015
      8 C          67.1101   93.0104   14.0117 C.ar    1  UNL1        0.0203
      9 C          67.0538   91.7807   13.1546 C.ar    1  UNL1        0.0985
     10 N          66.1010   90.6730   13.4939 N.ar    1  UNL1       -0.2471
     11 C          65.2044   90.7950   14.6903 C.ar    1  UNL1        0.0695
     12 C          63.4785   88.4937   12.8552 C.3     1  UNL1        0.0725
     13 C          62.7640   89.7401   12.4240 C.3     1  UNL1        0.0188
     14 C          61.8229   89.6994   11.2567 C.3     1  UNL1        0.0185
     15 C          60.4131   89.2234   11.4462 C.3     1  UNL1        0.0686
     16 N          60.1018   87.7573   11.3841 N.3     1  UNL1       -0.2985
     17 H          60.1117   87.4132   12.3442 H       1  UNL1        0.1232
     18 F          63.6874   83.8629    9.1892 F       1  UNL1       -0.2043
     19 C          62.7286   84.9988    8.9882 C.3     1  UNL1        0.2640
     20 F          63.1113   84.7260    7.5638 F       1  UNL1       -0.2043
     21 C          61.9028   86.0399    8.2926 C.3     1  UNL1        0.0679
     22 C          61.0271   86.9595    9.0912 C.3     1  UNL1        0.0213
     23 C          60.9774   86.8378   10.5854 C.3     1  UNL1        0.0543
     24 C          61.8033   85.7966   11.2811 C.3     1  UNL1        0.0213
     25 C          62.6789   84.8771   10.4824 C.3     1  UNL1        0.0679
     26 C          64.8557   87.1919   14.6324 C.3     1  UNL1        0.0886
     27 C          64.1008   85.8962   14.5968 C.3     1  UNL1        0.0748
     28 C          64.5004   84.8216   13.6297 C.3     1  UNL1        0.0432
     29 C          63.7455   83.5259   13.5941 C.ar    1  UNL1       -0.0234
     30 C          64.1451   82.4513   12.6270 C.ar    1  UNL1       -0.0045
     31 C          63.3902   81.1557   12.5915 C.ar    1  UNL1       -0.0003
     32 C          62.2355   80.9346   13.5231 C.ar    1  UNL1       -0.0003
     33 C          61.8359   82.0092   14.4903 C.ar    1  UNL1       -0.0032
     34 C          62.5908   83.3048   14.5258 C.ar    1  UNL1       -0.0103
     35 C          62.1912   84.3795   15.4930 C.3     1  UNL1        0.0953
     36 N          62.9461   85.6752   15.5285 N.3     1  UNL1       -0.2934
     37 H          63.3085   85.7789   16.4763 H       1  UNL1        0.1236
@<TRIPOS>BOND
     1    18    19    1
     2    19    20    1
     3    19    21    1
     4    21    22    1
     5    22    23    1
     6    23    16    1
     7    16    15    1
     8    15    14    1
     9    14    13    1
    10    13    12    1
    11    12     1    1
    12     1    26    1
    13    27    26    1
    14    27    28    1
    15    28    29    1
    16    29    30   ar
    17    30    31   ar
    18    31    32   ar
    19    32    33   ar
    20    33    34   ar
    21    34    35    1
    22    35    36    1
    23     2     1    1
    24     2     3    1
    25     3     4    1
    26     4     5    1
    27     5     6    1
    28     6     7   ar
    29     7     8   ar
    30     8     9   ar
    31     9    10   ar
    32    10    11   ar
    33    23    24    1
    34    24    25    1
    35    25    19    1
    36    36    27    1
    37    11     2    1
    38    34    29   ar
    39    11     6   ar
    40    16    17    1
    41    36    37    1
@<TRIPOS>MOLECULE
*****
 37 41 0 0 0
SMALL
GASTEIGER

@<TRIPOS>ATOM
      1 N          63.9414   89.5945   13.6266 N.3     1  UNL1       -0.2679
      2 C          64.3020   90.5405   14.7334 C.3     1  UNL1        0.0978
      3 C          63.3814   90.7094   15.9055 C.3     1  UNL1        0.0224
      4 C          63.7421   91.6554   17.0123 C.3     1  UNL1        0.0065
      5 C          65.0234   92.4325   16.9470 C.3     1  UNL1        0.0277
      6 C          65.9440   92.2636   15.7749 C.ar    1  UNL1       -0.0073
      7 C          67.2254   93.0407   15.7096 C.ar    1  UNL1       -0.0015
      8 C          68.1461   92.8718   14.5375 C.ar    1  UNL1        0.0203
      9 C          67.7854   91.9258   13.4307 C.ar    1  UNL1        0.0985
     10 N          66.5041   91.1487   13.4960 N.ar    1  UNL1       -0.2471
     11 C          65.5834   91.3176   14.6681 C.ar    1  UNL1        0.0695
     12 C          64.2487   88.1324   13.7597 C.3     1  UNL1        0.0725
     13 C          64.2744   87.4918   15.1158 C.3     1  UNL1        0.0188
     14 C          64.6567   86.0482   15.2562 C.3     1  UNL1        0.0185
     15 C          63.5948   84.9889   15.2679 C.3     1  UNL1        0.0686
     16 N          62.7059   84.8047   14.0736 N.3     1  UNL1       -0.2985
     17 H          61.7472   84.9316   14.3978 H       1  UNL1        0.1232
     18 F          63.0725   80.4303   10.3898 F       1  UNL1       -0.2043
     19 C          62.7988   80.9374   11.7746 C.3     1  UNL1        0.2640
     20 F          62.5727   79.4697   11.9854 F       1  UNL1       -0.2043
     21 C          62.4467   80.9349   13.2327 C.3     1  UNL1        0.0679
     22 C          62.4157   82.2240   13.9991 C.3     1  UNL1        0.0213
     23 C          62.7369   83.5156   13.3073 C.3     1  UNL1        0.0543
     24 C          63.0891   83.5182   11.8492 C.3     1  UNL1        0.0213
     25 C          63.1200   82.2291   11.0829 C.3     1  UNL1        0.0679
     26 C          63.2734   90.1106   12.3867 C.3     1  UNL1        0.0886
     27 C          62.5178   89.1704   11.4950 C.3     1  UNL1        0.0748
     28 C          61.6724   89.7107   10.3800 C.3     1  UNL1        0.0432
     29 C          60.9168   88.7704    9.4883 C.ar    1  UNL1       -0.0234
     30 C          60.0714   89.3107    8.3733 C.ar    1  UNL1       -0.0045
     31 C          59.3159   88.3704    7.4816 C.ar    1  UNL1       -0.0003
     32 C          59.4057   86.8899    7.7051 C.ar    1  UNL1       -0.0003
     33 C          60.2511   86.3496    8.8201 C.ar    1  UNL1       -0.0032
     34 C          61.0066   87.2898    9.7117 C.ar    1  UNL1       -0.0103
     35 C          61.8521   86.7496   10.8268 C.3     1  UNL1        0.0953
     36 N          62.6076   87.6898   11.7185 N.3     1  UNL1       -0.2934
     37 H          63.5935   87.4398   11.6420 H       1  UNL1        0.1236
@<TRIPOS>BOND
     1    18    19    1
     2    19    20    1
     3    19    21    1
     4    21    22    1
     5    22    23    1
     6    23    16    1
     7    16    15    1
     8    15    14    1
     9    14    13    1
    10    13    12    1
    11    12     1    1
    12     1    26    1
    13    27    26    1
    14    27    28    1
    15    28    29    1
    16    29    30   ar
    17    30    31   ar
    18    31    32   ar
    19    32    33   ar
    20    33    34   ar
    21    34    35    1
    22    35    36    1
    23     2     1    1
    24     2     3    1
    25     3     4    1
    26     4     5    1
    27     5     6    1
    28     6     7   ar
    29     7     8   ar
    30     8     9   ar
    31     9    10   ar
    32    10    11   ar
    33    23    24    1
    34    24    25    1
    35    25    19    1
    36    36    27    1
    37    11     2    1
    38    34    29   ar
    39    11     6   ar
    40    16    17    1
    41    36    37    1
@<TRIPOS>MOLECULE
*****
 37 41 0 0 0
SMALL
GASTEIGER

@<TRIPOS>ATOM
      1 N          63.4949   90.4887   11.9756 N.3     1  UNL1       -0.2679
      2 C          64.4800   91.6166   11.8891 C.3     1  UNL1        0.0978
      3 C          64.7626   92.2658   10.5667 C.3     1  UNL1        0.0224
      4 C          65.7476   93.3937   10.4802 C.3     1  UNL1        0.0065
      5 C          66.4501   93.8724   11.7161 C.3     1  UNL1        0.0277
      6 C          66.1675   93.2232   13.0384 C.ar    1  UNL1       -0.0073
      7 C          66.8699   93.7019   14.2743 C.ar    1  UNL1       -0.0015
      8 C          66.5873   93.0528   15.5967 C.ar    1  UNL1        0.0203
      9 C          65.6023   91.9249   15.6832 C.ar    1  UNL1        0.0985
     10 N          64.8998   91.4461   14.4474 N.ar    1  UNL1       -0.2471
     11 C          65.1824   92.0953   13.1249 C.ar    1  UNL1        0.0695
     12 C          62.8212   89.9844   10.7339 C.3     1  UNL1        0.0725
     13 C          61.4360   90.4471   10.3916 C.3     1  UNL1        0.0188
     14 C          60.2606   89.9365   11.1711 C.3     1  UNL1        0.0185
     15 C          59.9348   88.4723   11.1639 C.3     1  UNL1        0.0686
     16 N          59.3422   87.8419    9.9385 N.3     1  UNL1       -0.2985
     17 H          58.5522   87.2772   10.2507 H       1  UNL1        0.1232
     18 F          61.7588   84.3585    6.0827 F       1  UNL1       -0.2043
     19 C          61.8735   85.1992    7.3197 C.3     1  UNL1        0.2640
     20 F          63.2809   84.6903    7.2192 F       1  UNL1       -0.2043
     21 C          62.4770   85.8631    8.5217 C.3     1  UNL1        0.0679
     22 C          61.6332   86.7440    9.3947 C.3     1  UNL1        0.0213
     23 C          60.1860   86.9610    9.0656 C.3     1  UNL1        0.0543
     24 C          59.5825   86.2970    7.8635 C.3     1  UNL1        0.0213
     25 C          60.4262   85.4161    6.9906 C.3     1  UNL1        0.0679
     26 C          63.1835   89.8651   13.3038 C.3     1  UNL1        0.0886
     27 C          63.5383   88.4304   13.5603 C.3     1  UNL1        0.0748
     28 C          63.0529   87.3596   12.6288 C.3     1  UNL1        0.0432
     29 C          63.4077   85.9249   12.8854 C.ar    1  UNL1       -0.0234
     30 C          62.9223   84.8541   11.9538 C.ar    1  UNL1       -0.0045
     31 C          63.2771   83.4195   12.2104 C.ar    1  UNL1       -0.0003
     32 C          64.1173   83.0556   13.3986 C.ar    1  UNL1       -0.0003
     33 C          64.6027   84.1264   14.3301 C.ar    1  UNL1       -0.0032
     34 C          64.2479   85.5610   14.0735 C.ar    1  UNL1       -0.0103
     35 C          64.7333   86.6319   15.0051 C.3     1  UNL1        0.0953
     36 N          64.3785   88.0665   14.7485 N.3     1  UNL1       -0.2934
     37 H          65.2577   88.5749   14.6542 H       1  UNL1        0.1236
@<TRIPOS>BOND
     1    18    19    1
     2    19    20    1
     3    19    21    1
     4    21    22    1
     5    22    23    1
     6    23    16    1
     7    16    15    1
     8    15    14    1
     9    14    13    1
    10    13    12    1
    11    12     1    1
    12     1    26    1
    13    27    26    1
    14    27    28    1
    15    28    29    1
    16    29    30   ar
    17    30    31   ar
    18    31    32   ar
    19    32    33   ar
    20    33    34   ar
    21    34    35    1
    22    35    36    1
    23     2     1    1
    24     2     3    1
    25     3     4    1
    26     4     5    1
    27     5     6    1
    28     6     7   ar
    29     7     8   ar
    30     8     9   ar
    31     9    10   ar
    32    10    11   ar
    33    23    24    1
    34    24    25    1
    35    25    19    1
    36    36    27    1
    37    11     2    1
    38    34    29   ar
    39    11     6   ar
    40    16    17    1
    41    36    37    1
@<TRIPOS>MOLECULE
*****
 37 41 0 0 0
SMALL
GASTEIGER

@<TRIPOS>ATOM
      1 N          60.7162   87.3009   10.1472 N.3     1  UNL1       -0.2679
      2 C          61.7048   86.2251    9.8074 C.3     1  UNL1        0.0978
      3 C          62.0904   85.9853    8.3778 C.3     1  UNL1        0.0224
      4 C          63.0789   84.9095    8.0380 C.3     1  UNL1        0.0065
      5 C          63.6818   84.0735    9.1277 C.3     1  UNL1        0.0277
      6 C          63.2962   84.3133   10.5573 C.ar    1  UNL1       -0.0073
      7 C          63.8991   83.4773   11.6471 C.ar    1  UNL1       -0.0015
      8 C          63.5135   83.7171   13.0767 C.ar    1  UNL1        0.0203
      9 C          62.5250   84.7929   13.4165 C.ar    1  UNL1        0.0985
     10 N          61.9221   85.6289   12.3268 N.ar    1  UNL1       -0.2471
     11 C          62.3077   85.3891   10.8971 C.ar    1  UNL1        0.0695
     12 C          59.4981   87.4967    9.2943 C.3     1  UNL1        0.0725
     13 C          59.6455   87.9073    7.8590 C.3     1  UNL1        0.0188
     14 C          59.5459   89.3550    7.4791 C.3     1  UNL1        0.0185
     15 C          59.2706   89.7395    6.0556 C.3     1  UNL1        0.0686
     16 N          59.2368   91.1868    5.6628 N.3     1  UNL1       -0.2985
     17 H          58.2730   91.3996    5.4054 H       1  UNL1        0.1232
     18 F          63.2116   92.4648    1.7373 F       1  UNL1       -0.2043
     19 C          61.8363   92.6670    2.3010 C.3     1  UNL1        0.2640
     20 F          61.7886   93.6250    1.1478 F       1  UNL1       -0.2043
     21 C          60.4445   93.2018    2.4641 C.3     1  UNL1        0.0679
     22 C          59.5779   92.7084    3.5848 C.3     1  UNL1        0.0213
     23 C          60.1033   91.6802    4.5422 C.3     1  UNL1        0.0543
     24 C          61.4952   91.1453    4.3790 C.3     1  UNL1        0.0213
     25 C          62.3617   91.6387    3.2584 C.3     1  UNL1        0.0679
     26 C          60.9459   88.1808   11.3401 C.3     1  UNL1        0.0886
     27 C          61.9590   89.2851   11.2736 C.3     1  UNL1        0.0748
     28 C          62.8519   89.5555   12.4481 C.3     1  UNL1        0.0432
     29 C          63.8650   90.6597   12.3816 C.ar    1  UNL1       -0.0234
     30 C          64.7578   90.9301   13.5562 C.ar    1  UNL1       -0.0045
     31 C          65.7709   92.0343   13.4896 C.ar    1  UNL1       -0.0003
     32 C          65.8911   92.8681   12.2485 C.ar    1  UNL1       -0.0003
     33 C          64.9982   92.5977   11.0740 C.ar    1  UNL1       -0.0032
     34 C          63.9852   91.4935   11.1405 C.ar    1  UNL1       -0.0103
     35 C          63.0923   91.2230    9.9659 C.3     1  UNL1        0.0953
     36 N          62.0792   90.1189   10.0324 N.3     1  UNL1       -0.2934
     37 H          62.2907   89.4787    9.2670 H       1  UNL1        0.1236
@<TRIPOS>BOND
     1    18    19    1
     2    19    20    1
     3    19    21    1
     4    21    22    1
     5    22    23    1
     6    23    16    1
     7    16    15    1
     8    15    14    1
     9    14    13    1
    10    13    12    1
    11    12     1    1
    12     1    26    1
    13    27    26    1
    14    27    28    1
    15    28    29    1
    16    29    30   ar
    17    30    31   ar
    18    31    32   ar
    19    32    33   ar
    20    33    34   ar
    21    34    35    1
    22    35    36    1
    23     2     1    1
    24     2     3    1
    25     3     4    1
    26     4     5    1
    27     5     6    1
    28     6     7   ar
    29     7     8   ar
    30     8     9   ar
    31     9    10   ar
    32    10    11   ar
    33    23    24    1
    34    24    25    1
    35    25    19    1
    36    36    27    1
    37    11     2    1
    38    34    29   ar
    39    11     6   ar
    40    16    17    1
    41    36    37    1
