@<TRIPOS>MOLECULE
*****
 31 35 0 0 0
SMALL
GASTEIGER

@<TRIPOS>ATOM
      1 C          61.4606   86.9986   10.3449 C.ar    1  UNL1        0.0872
      2 C          62.1233   88.1139   11.0978 C.ar    1  UNL1        0.0535
      3 C          62.9716   87.8091   12.2969 C.ar    1  UNL1        0.1349
      4 N          63.1571   86.3890   12.7429 N.ar    1  UNL1       -0.2119
      5 C          62.4943   85.2737   11.9899 C.ar    1  UNL1        0.1637
      6 N          61.6461   85.5785   10.7909 N.ar    1  UNL1       -0.2264
      7 C          59.4934   89.0326    7.5622 C.ar    1  UNL1        0.0207
      8 C          58.9159   87.9131    6.7479 C.ar    1  UNL1        0.0989
      9 N          59.1867   86.4887    7.1325 N.ar    1  UNL1       -0.2423
     10 C          60.0349   86.1839    8.3315 C.ar    1  UNL1        0.1003
     11 C          60.6123   87.3034    9.1458 C.ar    1  UNL1        0.0370
     12 C          60.3416   88.7278    8.7612 C.ar    1  UNL1        0.0046
     13 N          63.6343   88.9243   13.0498 N.pl3   1  UNL1       -0.2932
     14 C          63.6313   90.3148   12.4871 C.3     1  UNL1        0.0922
     15 C          64.2940   91.4300   13.2400 C.3     1  UNL1        0.0229
     16 C          64.9597   91.1549   14.5558 C.3     1  UNL1        0.0194
     17 C          64.9627   89.7644   15.1185 C.3     1  UNL1        0.0229
     18 C          64.3000   88.6491   14.3655 C.3     1  UNL1        0.0922
     19 C          65.6224   92.2701   15.3087 C.3     1  UNL1        0.0723
     20 N          67.0819   92.5497   15.1042 N.3     1  UNL1       -0.2685
     21 C          67.8174   91.9031   13.9681 C.3     1  UNL1        0.1046
     22 C          69.2768   92.1827   13.7635 C.3     1  UNL1        0.1595
     23 O          70.0008   93.1089   14.6952 O.3     1  UNL1       -0.3508
     24 C          69.2653   93.7555   15.8313 C.3     1  UNL1        0.1595
     25 C          67.8058   93.4759   16.0358 C.3     1  UNL1        0.1046
     26 C          62.6798   83.8536   12.4359 C.ar    1  UNL1        0.0389
     27 C          62.8872   82.7695   11.4202 C.ar    1  UNL1        0.0237
     28 C          63.0727   81.3494   11.8662 C.ar    1  UNL1        0.0990
     29 N          63.0508   81.0134   13.3280 N.ar    1  UNL1       -0.2423
     30 C          62.8433   82.0975   14.3437 C.ar    1  UNL1        0.0990
     31 C          62.6578   83.5176   13.8976 C.ar    1  UNL1        0.0237
@<TRIPOS>BOND
     1     7     8   ar
     2     8     9   ar
     3     9    10   ar
     4    10    11   ar
     5    11     1    1
     6     1     2   ar
     7     2     3   ar
     8     3    13    1
     9    13    14    1
    10    14    15    1
    11    15    16    1
    12    16    19    1
    13    19    20    1
    14    20    21    1
    15    21    22    1
    16    22    23    1
    17    23    24    1
    18    24    25    1
    19    16    17    1
    20    17    18    1
    21     3     4   ar
    22     4     5   ar
    23     5    26    1
    24    26    27   ar
    25    27    28   ar
    26    28    29   ar
    27    29    30   ar
    28    30    31   ar
    29     5     6   ar
    30    11    12   ar
    31    12     7   ar
    32     6     1   ar
    33    18    13    1
    34    31    26   ar
    35    25    20    1
@<TRIPOS>MOLECULE
*****
 31 35 0 0 0
SMALL
GASTEIGER

@<TRIPOS>ATOM
      1 C          62.5630   85.2887   12.0631 C.ar    1  UNL1        0.0872
      2 C          63.2273   86.4003   12.8202 C.ar    1  UNL1        0.0535
      3 C          63.0241   87.8241   12.3939 C.ar    1  UNL1        0.1349
      4 N          62.1567   88.1363   11.2106 N.ar    1  UNL1       -0.2119
      5 C          61.4925   87.0246   10.4536 C.ar    1  UNL1        0.1637
      6 N          61.6957   85.6009   10.8798 N.ar    1  UNL1       -0.2264
      7 C          63.0958   81.3601   11.8833 C.ar    1  UNL1        0.0207
      8 C          63.1724   81.0175   13.3416 C.ar    1  UNL1        0.0989
      9 N          63.0460   82.0985   14.3737 N.ar    1  UNL1       -0.2423
     10 C          62.8428   83.5223   13.9476 C.ar    1  UNL1        0.1003
     11 C          62.7662   83.8649   12.4893 C.ar    1  UNL1        0.0370
     12 C          62.8927   82.7839   11.4572 C.ar    1  UNL1        0.0046
     13 N          63.6883   88.9357   13.1510 N.pl3   1  UNL1       -0.2932
     14 C          63.7328   90.3175   12.5691 C.3     1  UNL1        0.0922
     15 C          64.3970   91.4291   13.3262 C.3     1  UNL1        0.0229
     16 C          65.0169   91.1588   14.6652 C.3     1  UNL1        0.0194
     17 C          64.9724   89.7770   15.2471 C.3     1  UNL1        0.0229
     18 C          64.3081   88.6654   14.4899 C.3     1  UNL1        0.0922
     19 C          65.6811   92.2704   15.4223 C.3     1  UNL1        0.0723
     20 N          67.1313   92.5745   15.1893 N.3     1  UNL1       -0.2685
     21 C          67.8341   93.5818   16.0504 C.3     1  UNL1        0.1046
     22 C          69.2844   93.8859   15.8174 C.3     1  UNL1        0.1595
     23 O          70.0318   93.1828   14.7234 O.3     1  UNL1       -0.3508
     24 C          69.3290   92.1756   13.8623 C.3     1  UNL1        0.1595
     25 C          67.8788   91.8714   14.0953 C.3     1  UNL1        0.1046
     26 C          60.6251   87.3368    9.2703 C.ar    1  UNL1        0.0389
     27 C          60.0059   86.2226    8.4795 C.ar    1  UNL1        0.0237
     28 C          59.1385   86.5347    7.2962 C.ar    1  UNL1        0.0990
     29 N          58.8903   87.9611    6.9037 N.ar    1  UNL1       -0.2423
     30 C          59.5095   89.0752    7.6944 C.ar    1  UNL1        0.0990
     31 C          60.3769   88.7630    8.8777 C.ar    1  UNL1        0.0237
@<TRIPOS>BOND
     1     7     8   ar
     2     8     9   ar
     3     9    10   ar
     4    10    11   ar
     5    11     1    1
     6     1     2   ar
     7     2     3   ar
     8     3    13    1
     9    13    14    1
    10    14    15    1
    11    15    16    1
    12    16    19    1
    13    19    20    1
    14    20    21    1
    15    21    22    1
    16    22    23    1
    17    23    24    1
    18    24    25    1
    19    16    17    1
    20    17    18    1
    21     3     4   ar
    22     4     5   ar
    23     5    26    1
    24    26    27   ar
    25    27    28   ar
    26    28    29   ar
    27    29    30   ar
    28    30    31   ar
    29     5     6   ar
    30    11    12   ar
    31    12     7   ar
    32     6     1   ar
    33    18    13    1
    34    31    26   ar
    35    25    20    1
@<TRIPOS>MOLECULE
*****
 31 35 0 0 0
SMALL
GASTEIGER

@<TRIPOS>ATOM
      1 C          63.3357   86.1132   12.9765 C.ar    1  UNL1        0.0872
      2 C          62.4995   86.3661   11.7572 C.ar    1  UNL1        0.0535
      3 C          62.1931   87.7730   11.3364 C.ar    1  UNL1        0.1349
      4 N          62.7229   88.9269   12.1351 N.ar    1  UNL1       -0.2119
      5 C          63.5591   88.6739   13.3545 C.ar    1  UNL1        0.1637
      6 N          63.8654   87.2671   13.7752 N.ar    1  UNL1       -0.2264
      7 C          64.2509   82.2564   12.7835 C.ar    1  UNL1        0.0207
      8 C          64.2548   81.8928   14.2387 C.ar    1  UNL1        0.0989
      9 N          63.9523   82.9360   15.2732 N.ar    1  UNL1       -0.2423
     10 C          63.6459   84.3428   14.8525 C.ar    1  UNL1        0.1003
     11 C          63.6420   84.7064   13.3973 C.ar    1  UNL1        0.0370
     12 C          63.9445   83.6632   12.3628 C.ar    1  UNL1        0.0046
     13 N          61.3570   88.0259   10.1171 N.pl3   1  UNL1       -0.2932
     14 C          60.9214   89.4217    9.7826 C.3     1  UNL1        0.0922
     15 C          60.0853   89.6746    8.5633 C.3     1  UNL1        0.0229
     16 C          59.6847   88.5316    7.6783 C.3     1  UNL1        0.0194
     17 C          60.1202   87.1358    8.0127 C.3     1  UNL1        0.0229
     18 C          60.9564   86.8829    9.2321 C.3     1  UNL1        0.0922
     19 C          58.8485   88.7845    6.4589 C.3     1  UNL1        0.0723
     20 N          58.9662   90.0879    5.7259 N.3     1  UNL1       -0.2685
     21 C          60.3070   90.5612    5.2481 C.3     1  UNL1        0.1046
     22 C          60.4247   91.8646    4.5151 C.3     1  UNL1        0.1595
     23 O          59.2017   92.6947    4.2599 O.3     1  UNL1       -0.3508
     24 C          57.8609   92.2214    4.7377 C.3     1  UNL1        0.1595
     25 C          57.7432   90.9180    5.4707 C.3     1  UNL1        0.1046
     26 C          64.0889   89.8278   14.1531 C.ar    1  UNL1        0.0389
     27 C          63.5475   90.1018   15.5250 C.ar    1  UNL1        0.0237
     28 C          64.0773   91.2557   16.3236 C.ar    1  UNL1        0.0990
     29 N          65.1485   92.1356   15.7504 N.ar    1  UNL1       -0.2423
     30 C          65.6898   91.8615   14.3787 C.ar    1  UNL1        0.0990
     31 C          65.1600   90.7076   13.5800 C.ar    1  UNL1        0.0237
@<TRIPOS>BOND
     1     7     8   ar
     2     8     9   ar
     3     9    10   ar
     4    10    11   ar
     5    11     1    1
     6     1     2   ar
     7     2     3   ar
     8     3    13    1
     9    13    14    1
    10    14    15    1
    11    15    16    1
    12    16    19    1
    13    19    20    1
    14    20    21    1
    15    21    22    1
    16    22    23    1
    17    23    24    1
    18    24    25    1
    19    16    17    1
    20    17    18    1
    21     3     4   ar
    22     4     5   ar
    23     5    26    1
    24    26    27   ar
    25    27    28   ar
    26    28    29   ar
    27    29    30   ar
    28    30    31   ar
    29     5     6   ar
    30    11    12   ar
    31    12     7   ar
    32     6     1   ar
    33    18    13    1
    34    31    26   ar
    35    25    20    1
@<TRIPOS>MOLECULE
*****
 31 35 0 0 0
SMALL
GASTEIGER

@<TRIPOS>ATOM
      1 C          63.5947   88.8427   13.4138 C.ar    1  UNL1        0.0872
      2 C          62.7624   89.0799   12.1887 C.ar    1  UNL1        0.0535
      3 C          62.2190   87.9159   11.4141 C.ar    1  UNL1        0.1349
      4 N          62.5080   86.5147   11.8646 N.ar    1  UNL1       -0.2119
      5 C          63.3404   86.2775   13.0898 C.ar    1  UNL1        0.1637
      6 N          63.8837   87.4414   13.8644 N.ar    1  UNL1       -0.2264
      7 C          65.8704   91.9256   14.4469 C.ar    1  UNL1        0.0207
      8 C          65.2247   92.3345   15.7375 C.ar    1  UNL1        0.0989
      9 N          64.0357   91.5796   16.2536 N.ar    1  UNL1       -0.2423
     10 C          63.4924   90.4157   15.4791 C.ar    1  UNL1        0.1003
     11 C          64.1380   90.0067   14.1884 C.ar    1  UNL1        0.0370
     12 C          65.3270   90.7616   13.6723 C.ar    1  UNL1        0.0046
     13 N          61.3867   88.1532   10.1890 N.pl3   1  UNL1       -0.2932
     14 C          60.9383   89.5425    9.8445 C.3     1  UNL1        0.0922
     15 C          60.1059   89.7798    8.6194 C.3     1  UNL1        0.0229
     16 C          59.7220   88.6277    7.7387 C.3     1  UNL1        0.0194
     17 C          60.1705   87.2384    8.0833 C.3     1  UNL1        0.0229
     18 C          61.0028   87.0012    9.3085 C.3     1  UNL1        0.0922
     19 C          58.8897   88.8650    6.5137 C.3     1  UNL1        0.0723
     20 N          59.0378   90.1429    5.7422 N.3     1  UNL1       -0.2685
     21 C          60.3929   90.5833    5.2735 C.3     1  UNL1        0.1046
     22 C          60.5410   91.8612    4.5021 C.3     1  UNL1        0.1595
     23 O          59.3340   92.6987    4.1994 O.3     1  UNL1       -0.3508
     24 C          57.9789   92.2583    4.6681 C.3     1  UNL1        0.1595
     25 C          57.8308   90.9804    5.4395 C.3     1  UNL1        0.1046
     26 C          63.6294   84.8762   13.5404 C.ar    1  UNL1        0.0389
     27 C          63.8835   84.5923   14.9912 C.ar    1  UNL1        0.0237
     28 C          64.1726   83.1910   15.4418 C.ar    1  UNL1        0.0990
     29 N          64.2075   82.0737   14.4414 N.ar    1  UNL1       -0.2423
     30 C          63.9534   82.3577   12.9907 C.ar    1  UNL1        0.0990
     31 C          63.6644   83.7590   12.5401 C.ar    1  UNL1        0.0237
@<TRIPOS>BOND
     1     7     8   ar
     2     8     9   ar
     3     9    10   ar
     4    10    11   ar
     5    11     1    1
     6     1     2   ar
     7     2     3   ar
     8     3    13    1
     9    13    14    1
    10    14    15    1
    11    15    16    1
    12    16    19    1
    13    19    20    1
    14    20    21    1
    15    21    22    1
    16    22    23    1
    17    23    24    1
    18    24    25    1
    19    16    17    1
    20    17    18    1
    21     3     4   ar
    22     4     5   ar
    23     5    26    1
    24    26    27   ar
    25    27    28   ar
    26    28    29   ar
    27    29    30   ar
    28    30    31   ar
    29     5     6   ar
    30    11    12   ar
    31    12     7   ar
    32     6     1   ar
    33    18    13    1
    34    31    26   ar
    35    25    20    1
