@<TRIPOS>MOLECULE
*****
 62 69 0 0 0
SMALL
GASTEIGER

@<TRIPOS>ATOM
      1 N          63.7583   86.0731   16.0347 N.3     1  UNL1       -0.1862
      2 C          63.8804   84.5953   16.2604 C.3     1  UNL1        0.1775
      3 C          63.7691   83.6480   15.1027 C.2     1  UNL1        0.2452
      4 O          63.8912   82.1701   15.3284 O.2     1  UNL1       -0.2732
      5 N          63.5357   84.1787   13.7192 N.am    1  UNL1       -0.2541
      6 C          63.4244   83.2314   12.5615 C.3     1  UNL1        0.1577
      7 C          63.1910   83.7621   11.1781 C.2     1  UNL1        0.2445
      8 O          63.0797   82.8148   10.0203 O.2     1  UNL1       -0.2731
      9 N          63.0689   85.2400   10.9523 N.am    1  UNL1       -0.2705
     10 C          63.1802   86.1872   12.1101 C.3     1  UNL1        0.1359
     11 C          63.4136   85.6565   13.4936 C.3     1  UNL1        0.1908
     12 N          63.5249   86.6037   14.6513 N.am    1  UNL1       -0.1863
     13 C          63.4028   88.0817   14.4255 C.2     1  UNL1        0.3191
     14 O          63.1694   88.6123   13.0421 O.2     1  UNL1       -0.2512
     15 N          63.5141   89.0289   15.5833 N.am    1  UNL1       -0.2836
     16 H          63.6673   88.6806   16.4913 H       1  UNL1        0.1513
     17 C          63.8696   87.0204   17.1925 C.3     1  UNL1        0.1188
     18 C          62.6932   87.0594   19.5086 C.2     1  UNL1       -0.0034
     19 C          62.6642   87.3232   18.0322 C.2     1  UNL1       -0.0071
     20 C          63.5465   81.7536   12.7872 C.3     1  UNL1        0.0556
     21 C          62.3519   80.9611   13.2286 C.ar    1  UNL1       -0.0198
     22 C          61.1252   81.6672   13.7252 C.ar    1  UNL1       -0.0011
     23 C          59.9306   80.8747   14.1666 C.ar    1  UNL1        0.0363
     24 C          59.9627   79.3760   14.1116 C.ar    1  UNL1        0.1337
     25 O          58.7682   78.5835   14.5530 O.3     1  UNL1       -0.5055
     26 C          61.1895   78.6699   13.6151 C.ar    1  UNL1        0.0363
     27 C          62.3841   79.4624   13.1736 C.ar    1  UNL1       -0.0011
     28 H          58.0019   79.0246   14.8632 H       1  UNL1        0.2922
     29 C          62.8355   85.7706    9.5689 C.3     1  UNL1        0.1217
     30 C          62.1309   87.0809    9.3771 C.ar    1  UNL1        0.0135
     31 C          62.4885   88.2575   10.2361 C.ar    1  UNL1       -0.0012
     32 C          61.7839   89.5677   10.0444 C.ar    1  UNL1       -0.0002
     33 C          60.7219   89.7014    8.9937 C.ar    1  UNL1        0.0016
     34 C          60.3643   88.5249    8.1347 C.ar    1  UNL1        0.0214
     35 C          59.3671   88.3572    7.0268 C.ar    1  UNL1        0.0721
     36 C          59.4553   86.9433    6.5338 C.ar    1  UNL1        0.0805
     37 N          60.5071   86.2372    7.3370 N.ar    1  UNL1       -0.3241
     38 C          60.9239   84.8050    7.1787 C.3     1  UNL1        0.1305
     39 C          61.0689   87.2146    8.3264 C.ar    1  UNL1        0.0577
     40 C          58.4437   89.4173    6.5037 C.2     1  UNL1        0.2506
     41 O          57.0015   89.4259    6.9162 O.2     1  UNL1       -0.2699
     42 N          58.9625   90.4688    5.5682 N.am    1  UNL1       -0.2732
     43 C          58.0392   91.5289    5.0451 C.3     1  UNL1        0.1110
     44 C          58.5580   92.5804    4.1096 C.3     1  UNL1        0.0939
     45 N          60.0002   92.5718    3.6971 N.3     1  UNL1       -0.2686
     46 C          60.9235   91.5116    4.2202 C.3     1  UNL1        0.0939
     47 C          60.4047   90.4601    5.1558 C.3     1  UNL1        0.1110
     48 C          60.5190   93.6233    2.7616 C.3     1  UNL1        0.0897
     49 C          60.9867   93.2409    1.3886 C.3     1  UNL1        0.0898
     50 N          62.3371   93.6813    0.9066 N.3     1  UNL1       -0.2672
     51 C          62.4472   94.7197   -0.1701 C.3     1  UNL1        0.1047
     52 C          63.7976   95.1602   -0.6522 C.3     1  UNL1        0.1595
     53 O          65.0381   94.5621   -0.0574 O.3     1  UNL1       -0.3508
     54 C          64.9279   93.5236    1.0194 C.3     1  UNL1        0.1595
     55 C          63.5775   93.0832    1.5014 C.3     1  UNL1        0.1047
     56 C          63.3920   90.5068   15.3576 C.3     1  UNL1        0.1177
     57 C          64.6055   91.3141   15.0029 C.ar    1  UNL1       -0.0025
     58 C          65.0540   91.4059   13.5745 C.ar    1  UNL1       -0.0026
     59 C          66.2674   92.2132   13.2198 C.ar    1  UNL1       -0.0003
     60 C          67.0323   92.9287   14.2935 C.ar    1  UNL1       -0.0000
     61 C          66.5838   92.8370   15.7220 C.ar    1  UNL1       -0.0003
     62 C          65.3704   92.0297   16.0767 C.ar    1  UNL1       -0.0026
@<TRIPOS>BOND
     1    18    19    2
     2    19    17    1
     3    17     1    1
     4     1     2    1
     5     2     3    1
     6     3     4    2
     7     3     5   am
     8     5     6    1
     9     6    20    1
    10    20    21    1
    11    21    22   ar
    12    22    23   ar
    13    23    24   ar
    14    24    25    1
    15    24    26   ar
    16    26    27   ar
    17     6     7    1
    18     7     8    2
    19     7     9   am
    20     9    29    1
    21    29    30    1
    22    30    31   ar
    23    31    32   ar
    24    32    33   ar
    25    33    34   ar
    26    34    35   ar
    27    35    40    1
    28    40    41    2
    29    40    42   am
    30    42    43    1
    31    43    44    1
    32    44    45    1
    33    45    48    1
    34    48    49    1
    35    49    50    1
    36    50    51    1
    37    51    52    1
    38    52    53    1
    39    53    54    1
    40    54    55    1
    41    45    46    1
    42    46    47    1
    43    35    36   ar
    44    36    37   ar
    45    37    38    1
    46    37    39   ar
    47     9    10    1
    48    11    10    1
    49    11    12    1
    50    12    13   am
    51    13    14    2
    52    13    15   am
    53    15    56    1
    54    56    57    1
    55    57    58   ar
    56    58    59   ar
    57    59    60   ar
    58    60    61   ar
    59    61    62   ar
    60    12     1    1
    61    62    57   ar
    62    11     5    1
    63    27    21   ar
    64    39    30   ar
    65    39    34   ar
    66    47    42    1
    67    55    50    1
    68    25    28    1
    69    15    16    1
