@<TRIPOS>MOLECULE
*****
 21 23 0 0 0
SMALL
GASTEIGER

@<TRIPOS>ATOM
      1 C          65.9628   92.0524   13.4596 C.2     1  UNL1        0.1278
      2 C          65.6974   91.0358   14.5301 C.2     1  UNL1        0.0345
      3 C          64.5221   90.1113   14.4117 C.2     1  UNL1        0.0232
      4 C          63.6122   90.2034   13.2228 C.2     1  UNL1        0.0975
      5 N          62.3853   89.4322   12.8357 N.2     1  UNL1       -0.2200
      6 C          61.8924   89.9722   11.5259 C.2     1  UNL1        0.1901
      7 N          62.8147   91.0772   11.1035 N.2     1  UNL1       -0.2236
      8 C          63.8776   91.2200   12.1523 C.2     1  UNL1        0.0863
      9 C          65.0529   92.1445   12.2707 C.3     1  UNL1        0.1114
     10 O          67.1381   92.9769   13.5781 O.2     1  UNL1       -0.4277
     11 F          67.3519   93.4006   16.1324 F       1  UNL1       -0.1550
     12 C          67.9654   92.9818   14.8293 C.3     1  UNL1        0.5084
     13 F          69.4063   92.5679   14.7773 F       1  UNL1       -0.1550
     14 S          60.6884   89.4916   10.7711 S.3     1  UNL1       -0.0692
     15 C          60.2343   88.0689   10.9109 C.3     1  UNL1        0.1107
     16 C          61.1733   86.9462   10.5825 C.ar    1  UNL1        0.0703
     17 C          61.6759   86.7749    9.1796 C.ar    1  UNL1        0.0156
     18 C          62.6149   85.6522    8.8512 C.ar    1  UNL1        0.0028
     19 C          63.0512   84.7008    9.9257 C.ar    1  UNL1        0.0207
     20 C          62.5486   84.8721   11.3285 C.ar    1  UNL1        0.0985
     21 N          61.6096   85.9948   11.6569 N.ar    1  UNL1       -0.2473
@<TRIPOS>BOND
     1    11    12    1
     2    12    13    1
     3    12    10    1
     4    10     1    1
     5     1     2    2
     6     2     3    1
     7     3     4    2
     8     4     5    1
     9     5     6    2
    10     6    14    1
    11    14    15    1
    12    15    16    1
    13    16    17   ar
    14    17    18   ar
    15    18    19   ar
    16    19    20   ar
    17    20    21   ar
    18     6     7    1
    19     7     8    2
    20     8     9    1
    21     9     1    1
    22     8     4    1
    23    21    16   ar
@<TRIPOS>MOLECULE
*****
 21 23 0 0 0
SMALL
GASTEIGER

@<TRIPOS>ATOM
      1 C          65.3328   92.0776   12.7856 C.2     1  UNL1        0.1278
      2 C          65.2727   92.5199   11.3536 C.2     1  UNL1        0.0345
      3 C          64.2183   91.9666   10.4414 C.2     1  UNL1        0.0232
      4 C          63.2242   90.9709   10.9612 C.2     1  UNL1        0.0975
      5 N          62.0808   90.2570   10.3032 N.2     1  UNL1       -0.2200
      6 C          61.4342   89.3734   11.3285 C.2     1  UNL1        0.1901
      7 N          62.1781   89.5412   12.6202 N.2     1  UNL1       -0.2236
      8 C          63.2843   90.5285   12.3932 C.2     1  UNL1        0.0863
      9 C          64.3387   91.0819   13.3054 C.3     1  UNL1        0.1114
     10 O          66.3872   92.6309   13.6979 O.2     1  UNL1       -0.4277
     11 F          68.5780   91.4981   12.8811 F       1  UNL1       -0.1550
     12 C          67.6225   91.8313   13.9884 C.3     1  UNL1        0.5084
     13 F          67.9024   91.3647   15.3863 F       1  UNL1       -0.1550
     14 S          60.2515   88.4790   11.1019 S.3     1  UNL1       -0.0692
     15 C          60.2740   87.4734    9.9892 C.3     1  UNL1        0.1107
     16 C          61.3335   86.4120    9.9588 C.ar    1  UNL1        0.0703
     17 C          62.0777   86.1314    8.6870 C.ar    1  UNL1        0.0156
     18 C          63.1372   85.0700    8.6566 C.ar    1  UNL1        0.0028
     19 C          63.4525   84.2893    9.8980 C.ar    1  UNL1        0.0207
     20 C          62.7084   84.5700   11.1698 C.ar    1  UNL1        0.0985
     21 N          61.6488   85.6314   11.2002 N.ar    1  UNL1       -0.2473
@<TRIPOS>BOND
     1    11    12    1
     2    12    13    1
     3    12    10    1
     4    10     1    1
     5     1     2    2
     6     2     3    1
     7     3     4    2
     8     4     5    1
     9     5     6    2
    10     6    14    1
    11    14    15    1
    12    15    16    1
    13    16    17   ar
    14    17    18   ar
    15    18    19   ar
    16    19    20   ar
    17    20    21   ar
    18     6     7    1
    19     7     8    2
    20     8     9    1
    21     9     1    1
    22     8     4    1
    23    21    16   ar
@<TRIPOS>MOLECULE
*****
 21 23 0 0 0
SMALL
GASTEIGER

@<TRIPOS>ATOM
      1 C          65.7078   92.4679   11.7325 C.2     1  UNL1        0.1278
      2 C          65.7101   91.9558   13.1424 C.2     1  UNL1        0.0345
      3 C          64.6060   91.0576   13.6159 C.2     1  UNL1        0.0232
      4 C          63.4996   90.6716   12.6796 C.2     1  UNL1        0.0975
      5 N          62.2865   89.8081   12.8611 N.2     1  UNL1       -0.2200
      6 C          61.5344   89.7866   11.5635 C.2     1  UNL1        0.1901
      7 N          62.2827   90.6367   10.5799 N.2     1  UNL1       -0.2236
      8 C          63.4972   91.1837   11.2698 C.2     1  UNL1        0.0863
      9 C          64.6013   92.0819   10.7962 C.3     1  UNL1        0.1114
     10 O          66.8118   93.3661   11.2590 O.2     1  UNL1       -0.4277
     11 F          67.8568   91.6215    9.6422 F       1  UNL1       -0.1550
     12 C          67.5465   93.0470    9.9908 C.3     1  UNL1        0.5084
     13 F          67.9708   94.1534    9.0710 F       1  UNL1       -0.1550
     14 S          60.2581   89.0451   11.2963 S.3     1  UNL1       -0.0692
     15 C          60.2096   87.9981   10.2233 C.3     1  UNL1        0.1107
     16 C          61.1774   86.8524   10.2491 C.ar    1  UNL1        0.0703
     17 C          61.8946   86.4481    8.9952 C.ar    1  UNL1        0.0156
     18 C          62.8624   85.3024    9.0209 C.ar    1  UNL1        0.0028
     19 C          63.1131   84.5609   10.3006 C.ar    1  UNL1        0.0207
     20 C          62.3959   84.9652   11.5545 C.ar    1  UNL1        0.0985
     21 N          61.4280   86.1110   11.5287 N.ar    1  UNL1       -0.2473
@<TRIPOS>BOND
     1    11    12    1
     2    12    13    1
     3    12    10    1
     4    10     1    1
     5     1     2    2
     6     2     3    1
     7     3     4    2
     8     4     5    1
     9     5     6    2
    10     6    14    1
    11    14    15    1
    12    15    16    1
    13    16    17   ar
    14    17    18   ar
    15    18    19   ar
    16    19    20   ar
    17    20    21   ar
    18     6     7    1
    19     7     8    2
    20     8     9    1
    21     9     1    1
    22     8     4    1
    23    21    16   ar
@<TRIPOS>MOLECULE
*****
 21 23 0 0 0
SMALL
GASTEIGER

@<TRIPOS>ATOM
      1 C          63.3544   83.1494   11.8403 C.2     1  UNL1        0.1278
      2 C          63.9115   83.0508   10.4511 C.2     1  UNL1        0.0345
      3 C          63.5683   84.0941    9.4295 C.2     1  UNL1        0.0232
      4 C          62.6680   85.2361    9.7971 C.2     1  UNL1        0.0975
      5 N          62.1573   86.4056    9.0088 N.2     1  UNL1       -0.2200
      6 C          61.2845   87.2270    9.9107 C.2     1  UNL1        0.1901
      7 N          61.2558   86.5653   11.2565 N.2     1  UNL1       -0.2236
      8 C          62.1108   85.3348   11.1863 C.2     1  UNL1        0.0863
      9 C          62.4540   84.2914   12.2078 C.3     1  UNL1        0.1114
     10 O          63.6976   82.1061   12.8618 O.2     1  UNL1       -0.4277
     11 F          62.4953   79.8120   12.6579 F       1  UNL1       -0.1550
     12 C          62.6481   81.1431   13.3322 C.3     1  UNL1        0.5084
     13 F          61.7514   81.5113   14.4770 F       1  UNL1       -0.1550
     14 S          60.5665   88.4888    9.5331 S.3     1  UNL1       -0.0692
     15 C          60.4838   89.6253   10.5086 C.3     1  UNL1        0.1107
     16 C          61.7246   90.1193   11.1915 C.ar    1  UNL1        0.0703
     17 C          62.7072   90.9675   10.4399 C.ar    1  UNL1        0.0156
     18 C          63.9480   91.4616   11.1228 C.ar    1  UNL1        0.0028
     19 C          64.2061   91.1074   12.5574 C.ar    1  UNL1        0.0207
     20 C          63.2235   90.2592   13.3090 C.ar    1  UNL1        0.0985
     21 N          61.9827   89.7652   12.6260 N.ar    1  UNL1       -0.2473
@<TRIPOS>BOND
     1    11    12    1
     2    12    13    1
     3    12    10    1
     4    10     1    1
     5     1     2    2
     6     2     3    1
     7     3     4    2
     8     4     5    1
     9     5     6    2
    10     6    14    1
    11    14    15    1
    12    15    16    1
    13    16    17   ar
    14    17    18   ar
    15    18    19   ar
    16    19    20   ar
    17    20    21   ar
    18     6     7    1
    19     7     8    2
    20     8     9    1
    21     9     1    1
    22     8     4    1
    23    21    16   ar
@<TRIPOS>MOLECULE
*****
 21 23 0 0 0
SMALL
GASTEIGER

@<TRIPOS>ATOM
      1 C          61.6347   86.0673    8.5795 C.2     1  UNL1        0.1278
      2 C          62.7119   85.1298    8.1205 C.2     1  UNL1        0.0345
      3 C          63.4767   84.3177    9.1233 C.2     1  UNL1        0.0232
      4 C          63.1643   84.4431   10.5850 C.2     1  UNL1        0.0975
      5 N          63.7455   83.7763   11.7965 N.2     1  UNL1       -0.2200
      6 C          63.0275   84.3017   13.0041 C.2     1  UNL1        0.1901
      7 N          62.0025   85.2932   12.5391 N.2     1  UNL1       -0.2236
      8 C          62.0870   85.3806   11.0439 C.2     1  UNL1        0.0863
      9 C          61.3222   86.1927   10.0412 C.3     1  UNL1        0.1114
     10 O          60.8699   86.8794    7.5767 O.2     1  UNL1       -0.4277
     11 F          59.4743   89.0422    7.9293 F       1  UNL1       -0.1550
     12 C          59.5869   87.5471    7.9741 C.3     1  UNL1        0.5084
     13 F          58.4164   86.7197    8.4162 F       1  UNL1       -0.1550
     14 S          63.2886   83.9052   14.4271 S.3     1  UNL1       -0.0692
     15 C          64.2503   84.6977   15.2620 C.3     1  UNL1        0.1107
     16 C          63.8891   86.0826   15.7110 C.ar    1  UNL1        0.0703
     17 C          63.1820   86.2868   17.0180 C.ar    1  UNL1        0.0156
     18 C          62.8208   87.6716   17.4670 C.ar    1  UNL1        0.0028
     19 C          63.1667   88.8524   16.6089 C.ar    1  UNL1        0.0207
     20 C          63.8738   88.6482   15.3019 C.ar    1  UNL1        0.0985
     21 N          64.2350   87.2633   14.8529 N.ar    1  UNL1       -0.2473
@<TRIPOS>BOND
     1    11    12    1
     2    12    13    1
     3    12    10    1
     4    10     1    1
     5     1     2    2
     6     2     3    1
     7     3     4    2
     8     4     5    1
     9     5     6    2
    10     6    14    1
    11    14    15    1
    12    15    16    1
    13    16    17   ar
    14    17    18   ar
    15    18    19   ar
    16    19    20   ar
    17    20    21   ar
    18     6     7    1
    19     7     8    2
    20     8     9    1
    21     9     1    1
    22     8     4    1
    23    21    16   ar
@<TRIPOS>MOLECULE
*****
 21 23 0 0 0
SMALL
GASTEIGER

@<TRIPOS>ATOM
      1 C          61.4942   86.4567    9.2965 C.2     1  UNL1        0.1278
      2 C          61.8938   85.5090   10.3883 C.2     1  UNL1        0.0345
      3 C          62.5134   86.0354   11.6488 C.2     1  UNL1        0.0232
      4 C          62.7335   87.5095   11.8175 C.2     1  UNL1        0.0975
      5 N          63.3180   88.3151   12.9397 N.2     1  UNL1       -0.2200
      6 C          63.2797   89.7608   12.5414 C.2     1  UNL1        0.1901
      7 N          62.6715   89.8486   11.1731 N.2     1  UNL1       -0.2236
      8 C          62.3339   88.4572   10.7257 C.2     1  UNL1        0.0863
      9 C          61.7143   87.9308    9.4652 C.3     1  UNL1        0.1114
     10 O          60.8746   85.9303    8.0359 O.2     1  UNL1       -0.4277
     11 F          63.1557   84.9332    7.2929 F       1  UNL1       -0.1550
     12 C          61.6698   85.0460    7.1218 C.3     1  UNL1        0.5084
     13 F          60.9791   84.2746    6.0365 F       1  UNL1       -0.1550
     14 S          63.7646   90.9158   13.3666 S.3     1  UNL1       -0.0692
     15 C          64.9539   91.7117   12.9171 C.3     1  UNL1        0.1107
     16 C          66.0533   92.0299   13.8866 C.ar    1  UNL1        0.0703
     17 C          67.4867   91.8893   13.4677 C.ar    1  UNL1        0.0156
     18 C          68.5861   92.2075   14.4372 C.ar    1  UNL1        0.0028
     19 C          68.2521   92.6663   15.8258 C.ar    1  UNL1        0.0207
     20 C          66.8187   92.8069   16.2447 C.ar    1  UNL1        0.0985
     21 N          65.7193   92.4887   15.2751 N.ar    1  UNL1       -0.2473
@<TRIPOS>BOND
     1    11    12    1
     2    12    13    1
     3    12    10    1
     4    10     1    1
     5     1     2    2
     6     2     3    1
     7     3     4    2
     8     4     5    1
     9     5     6    2
    10     6    14    1
    11    14    15    1
    12    15    16    1
    13    16    17   ar
    14    17    18   ar
    15    18    19   ar
    16    19    20   ar
    17    20    21   ar
    18     6     7    1
    19     7     8    2
    20     8     9    1
    21     9     1    1
    22     8     4    1
    23    21    16   ar
@<TRIPOS>MOLECULE
*****
 21 23 0 0 0
SMALL
GASTEIGER

@<TRIPOS>ATOM
      1 C          66.4038   92.6879   14.6852 C.2     1  UNL1        0.1278
      2 C          66.5110   93.4053   13.3722 C.2     1  UNL1        0.0345
      3 C          65.6475   92.9901   12.2181 C.2     1  UNL1        0.0232
      4 C          64.6768   91.8576   12.3770 C.2     1  UNL1        0.0975
      5 N          63.7028   91.2294   11.4248 N.2     1  UNL1       -0.2200
      6 C          62.9937   90.1239   12.1493 C.2     1  UNL1        0.1901
      7 N          63.5294   90.0688   13.5492 N.2     1  UNL1       -0.2236
      8 C          64.5697   91.1403   13.6899 C.2     1  UNL1        0.0863
      9 C          65.4332   91.5555   14.8440 C.3     1  UNL1        0.1114
     10 O          67.2673   93.1031   15.8393 O.2     1  UNL1       -0.4277
     11 F          69.5140   92.5167   14.6739 F       1  UNL1       -0.1550
     12 C          68.7280   93.3689   15.6256 C.3     1  UNL1        0.5084
     13 F          69.4027   94.4871   16.3636 F       1  UNL1       -0.1550
     14 S          61.9347   89.2303   11.5746 S.3     1  UNL1       -0.0692
     15 C          61.4663   89.4334   10.1641 C.3     1  UNL1        0.1107
     16 C          61.0452   88.2554    9.3367 C.ar    1  UNL1        0.0703
     17 C          61.9328   87.0499    9.2417 C.ar    1  UNL1        0.0156
     18 C          61.5117   85.8718    8.4143 C.ar    1  UNL1        0.0028
     19 C          60.2030   85.8991    7.6817 C.ar    1  UNL1        0.0207
     20 C          59.3155   87.1046    7.7766 C.ar    1  UNL1        0.0985
     21 N          59.7366   88.2828    8.6041 N.ar    1  UNL1       -0.2473
@<TRIPOS>BOND
     1    11    12    1
     2    12    13    1
     3    12    10    1
     4    10     1    1
     5     1     2    2
     6     2     3    1
     7     3     4    2
     8     4     5    1
     9     5     6    2
    10     6    14    1
    11    14    15    1
    12    15    16    1
    13    16    17   ar
    14    17    18   ar
    15    18    19   ar
    16    19    20   ar
    17    20    21   ar
    18     6     7    1
    19     7     8    2
    20     8     9    1
    21     9     1    1
    22     8     4    1
    23    21    16   ar
@<TRIPOS>MOLECULE
*****
 21 23 0 0 0
SMALL
GASTEIGER

@<TRIPOS>ATOM
      1 C          63.4500   84.0729   12.9948 C.2     1  UNL1        0.1278
      2 C          64.2095   84.1682   14.2848 C.2     1  UNL1        0.0345
      3 C          64.5410   85.5122   14.8624 C.2     1  UNL1        0.0232
      4 C          64.1131   86.7609   14.1501 C.2     1  UNL1        0.0975
      5 N          64.2949   88.2140   14.4747 N.2     1  UNL1       -0.2200
      6 C          63.6477   89.0169   13.3854 C.2     1  UNL1        0.1901
      7 N          63.0660   88.0600   12.3875 N.2     1  UNL1       -0.2236
      8 C          63.3536   86.6657   12.8601 C.2     1  UNL1        0.0863
      9 C          63.0221   85.3216   12.2825 C.3     1  UNL1        0.1114
     10 O          63.1185   82.7289   12.4172 O.2     1  UNL1       -0.4277
     11 F          64.7266   83.1621   10.4232 F       1  UNL1       -0.1550
     12 C          63.6544   82.3378   11.0719 C.3     1  UNL1        0.5084
     13 F          63.1180   81.1224   10.3752 F       1  UNL1       -0.1550
     14 S          63.5921   90.5139   13.3076 S.3     1  UNL1       -0.0692
     15 C          64.8086   91.2892   12.8966 C.3     1  UNL1        0.1107
     16 C          65.7770   91.7715   13.9355 C.ar    1  UNL1        0.0703
     17 C          67.2411   91.8477   13.6182 C.ar    1  UNL1        0.0156
     18 C          68.2096   92.3300   14.6571 C.ar    1  UNL1        0.0028
     19 C          67.7140   92.7362   16.0134 C.ar    1  UNL1        0.0207
     20 C          66.2499   92.6601   16.3307 C.ar    1  UNL1        0.0985
     21 N          65.2814   92.1777   15.2917 N.ar    1  UNL1       -0.2473
@<TRIPOS>BOND
     1    11    12    1
     2    12    13    1
     3    12    10    1
     4    10     1    1
     5     1     2    2
     6     2     3    1
     7     3     4    2
     8     4     5    1
     9     5     6    2
    10     6    14    1
    11    14    15    1
    12    15    16    1
    13    16    17   ar
    14    17    18   ar
    15    18    19   ar
    16    19    20   ar
    17    20    21   ar
    18     6     7    1
    19     7     8    2
    20     8     9    1
    21     9     1    1
    22     8     4    1
    23    21    16   ar
@<TRIPOS>MOLECULE
*****
 21 23 0 0 0
SMALL
GASTEIGER

@<TRIPOS>ATOM
      1 C          65.4129   91.5157   14.1895 C.2     1  UNL1        0.1278
      2 C          65.4410   92.4245   12.9965 C.2     1  UNL1        0.0345
      3 C          64.6606   92.0705   11.7654 C.2     1  UNL1        0.0232
      4 C          63.8521   90.8076   11.7273 C.2     1  UNL1        0.0975
      5 N          62.9883   90.2006   10.6617 N.2     1  UNL1       -0.2200
      6 C          62.4263   88.9166   11.1962 C.2     1  UNL1        0.1901
      7 N          62.9428   88.7301   12.5920 N.2     1  UNL1       -0.2236
      8 C          63.8240   89.8989   12.9203 C.2     1  UNL1        0.0863
      9 C          64.6043   90.2529   14.1514 C.3     1  UNL1        0.1114
     10 O          66.1932   91.8698   15.4206 O.2     1  UNL1       -0.4277
     11 F          68.4799   92.0842   16.6351 F       1  UNL1       -0.1550
     12 C          67.6914   91.9239   15.3692 C.3     1  UNL1        0.5084
     13 F          68.4010   91.8178   14.0519 F       1  UNL1       -0.1550
     14 S          61.5089   87.9831   10.4633 S.3     1  UNL1       -0.0692
     15 C          61.1023   86.6836   11.0926 C.3     1  UNL1        0.1107
     16 C          62.1116   85.5886   11.2713 C.ar    1  UNL1        0.0703
     17 C          62.6944   84.9026   10.0713 C.ar    1  UNL1        0.0156
     18 C          63.7037   83.8075   10.2500 C.ar    1  UNL1        0.0028
     19 C          64.1304   83.3983   11.6287 C.ar    1  UNL1        0.0207
     20 C          63.5476   84.0843   12.8286 C.ar    1  UNL1        0.0985
     21 N          62.5382   85.1794   12.6499 N.ar    1  UNL1       -0.2473
@<TRIPOS>BOND
     1    11    12    1
     2    12    13    1
     3    12    10    1
     4    10     1    1
     5     1     2    2
     6     2     3    1
     7     3     4    2
     8     4     5    1
     9     5     6    2
    10     6    14    1
    11    14    15    1
    12    15    16    1
    13    16    17   ar
    14    17    18   ar
    15    18    19   ar
    16    19    20   ar
    17    20    21   ar
    18     6     7    1
    19     7     8    2
    20     8     9    1
    21     9     1    1
    22     8     4    1
    23    21    16   ar
