@<TRIPOS>MOLECULE
*****
 32 36 0 0 0
SMALL
GASTEIGER

@<TRIPOS>ATOM
      1 O          62.3923   83.6909   16.4387 O.2     1  UNL1       -0.2745
      2 C          63.3380   84.3560   15.4830 C.2     1  UNL1        0.2301
      3 N          63.5316   85.8427   15.5321 N.am    1  UNL1       -0.2793
      4 C          62.7795   86.6642   16.5369 C.3     1  UNL1        0.0935
      5 C          62.9732   88.1508   16.5859 C.3     1  UNL1        0.0240
      6 C          63.9189   88.8159   15.6302 C.3     1  UNL1        0.0304
      7 C          64.6709   87.9944   14.6255 C.3     1  UNL1        0.0240
      8 C          64.4772   86.5078   14.5764 C.3     1  UNL1        0.0935
      9 C          64.1125   90.3025   15.6793 C.3     1  UNL1        0.1128
     10 O          63.2119   91.1485   16.5296 O.3     1  UNL1       -0.3844
     11 H          63.4711   92.0797   16.4481 H       1  UNL1        0.2103
     12 C          65.2069   90.9432   14.8779 C.3     1  UNL1        0.0564
     13 C          64.9310   91.4297   13.4861 C.3     1  UNL1        0.1119
     14 C          63.9807   90.8070   12.5067 C.ar    1  UNL1       -0.0002
     15 C          63.0852   89.6074   12.6010 C.ar    1  UNL1       -0.0024
     16 C          62.2283   89.2175   11.4333 C.ar    1  UNL1       -0.0003
     17 C          62.2669   90.0272   10.1712 C.ar    1  UNL1        0.0000
     18 C          63.1624   91.2268   10.0769 C.ar    1  UNL1        0.0012
     19 C          64.0193   91.6167   11.2446 C.ar    1  UNL1        0.0152
     20 C          64.9935   92.7398   11.4440 C.ar    1  UNL1        0.0804
     21 C          65.6194   93.9343   10.7872 C.ar    1  UNL1        0.1177
     22 N          66.5697   94.5569   11.7667 N.ar    1  UNL1       -0.2223
     23 C          66.5311   93.7472   13.0288 C.ar    1  UNL1        0.1788
     24 N          65.5569   92.6242   12.8293 N.ar    1  UNL1       -0.3069
     25 C          64.0900   83.5345   14.4782 C.3     1  UNL1        0.1116
     26 C          63.8444   83.7336   13.0119 C.ar    1  UNL1       -0.0129
     27 C          64.6435   82.9595   12.0059 C.ar    1  UNL1       -0.0015
     28 C          64.3980   83.1585   10.5395 C.ar    1  UNL1        0.0293
     29 C          63.3534   84.1317   10.0794 C.ar    1  UNL1        0.1401
     30 F          63.1078   84.3308    8.6130 F       1  UNL1       -0.2042
     31 C          62.5543   84.9059   11.0855 C.ar    1  UNL1        0.0293
     32 C          62.7998   84.7068   12.5518 C.ar    1  UNL1       -0.0015
@<TRIPOS>BOND
     1     1     2    2
     2     2    25    1
     3    25    26    1
     4    26    27   ar
     5    27    28   ar
     6    28    29   ar
     7    29    30    1
     8    29    31   ar
     9    31    32   ar
    10     2     3   am
    11     3     4    1
    12     4     5    1
    13     5     6    1
    14     6     9    1
    15     9    10    1
    16     9    12    1
    17    12    13    1
    18    13    14    1
    19    14    15   ar
    20    15    16   ar
    21    16    17   ar
    22    17    18   ar
    23    18    19   ar
    24    19    20    1
    25    20    21   ar
    26    21    22   ar
    27    22    23   ar
    28    23    24   ar
    29     6     7    1
    30     7     8    1
    31    32    26   ar
    32     8     3    1
    33    24    13    1
    34    19    14   ar
    35    24    20   ar
    36    10    11    1
@<TRIPOS>MOLECULE
*****
 32 36 0 0 0
SMALL
GASTEIGER

@<TRIPOS>ATOM
      1 O          63.3346   83.1681   15.9330 O.2     1  UNL1       -0.2745
      2 C          64.0911   84.0887   15.0219 C.2     1  UNL1        0.2301
      3 N          63.9955   85.5740   15.2088 N.am    1  UNL1       -0.2793
      4 C          63.1436   86.1385   16.3067 C.3     1  UNL1        0.0935
      5 C          63.0481   87.6238   16.4934 C.3     1  UNL1        0.0240
      6 C          63.8046   88.5445   15.5823 C.3     1  UNL1        0.0304
      7 C          64.6565   87.9799   14.4844 C.3     1  UNL1        0.0240
      8 C          64.7520   86.4947   14.2976 C.3     1  UNL1        0.0935
      9 C          63.7091   90.0297   15.7691 C.3     1  UNL1        0.1128
     10 O          62.5981   90.6124   16.5914 O.3     1  UNL1       -0.3844
     11 H          62.6825   91.5785   16.6107 H       1  UNL1        0.2103
     12 C          64.7247   90.9324   15.1335 C.3     1  UNL1        0.0564
     13 C          64.6165   91.2752   13.6772 C.3     1  UNL1        0.1119
     14 C          63.5218   90.8408   12.7483 C.ar    1  UNL1       -0.0002
     15 C          62.2977   90.0008   12.9628 C.ar    1  UNL1       -0.0024
     16 C          61.3645   89.7297   11.8202 C.ar    1  UNL1       -0.0003
     17 C          61.6553   90.2985   10.4631 C.ar    1  UNL1        0.0000
     18 C          62.8794   91.1385   10.2485 C.ar    1  UNL1        0.0012
     19 C          63.8126   91.4097   11.3911 C.ar    1  UNL1        0.0152
     20 C          65.0870   92.1956   11.4814 C.ar    1  UNL1        0.0804
     21 C          66.0545   93.0329   10.6983 C.ar    1  UNL1        0.1177
     22 N          67.1492   93.4672   11.6274 N.ar    1  UNL1       -0.2223
     23 C          66.8583   92.8984   12.9845 C.ar    1  UNL1        0.1788
     24 N          65.5839   92.1125   12.8942 N.ar    1  UNL1       -0.3069
     25 C          64.9430   83.5241   13.9240 C.3     1  UNL1        0.1116
     26 C          64.3216   82.6792   12.8516 C.ar    1  UNL1       -0.0129
     27 C          63.5606   81.4402   13.2199 C.ar    1  UNL1       -0.0015
     28 C          62.9391   80.5952   12.1476 C.ar    1  UNL1        0.0293
     29 C          63.0787   80.9893   10.7070 C.ar    1  UNL1        0.1401
     30 F          62.4573   80.1444    9.6347 F       1  UNL1       -0.2042
     31 C          63.8397   82.2284   10.3387 C.ar    1  UNL1        0.0293
     32 C          64.4611   83.0733   11.4111 C.ar    1  UNL1       -0.0015
@<TRIPOS>BOND
     1     1     2    2
     2     2    25    1
     3    25    26    1
     4    26    27   ar
     5    27    28   ar
     6    28    29   ar
     7    29    30    1
     8    29    31   ar
     9    31    32   ar
    10     2     3   am
    11     3     4    1
    12     4     5    1
    13     5     6    1
    14     6     9    1
    15     9    10    1
    16     9    12    1
    17    12    13    1
    18    13    14    1
    19    14    15   ar
    20    15    16   ar
    21    16    17   ar
    22    17    18   ar
    23    18    19   ar
    24    19    20    1
    25    20    21   ar
    26    21    22   ar
    27    22    23   ar
    28    23    24   ar
    29     6     7    1
    30     7     8    1
    31    32    26   ar
    32     8     3    1
    33    24    13    1
    34    19    14   ar
    35    24    20   ar
    36    10    11    1
@<TRIPOS>MOLECULE
*****
 32 36 0 0 0
SMALL
GASTEIGER

@<TRIPOS>ATOM
      1 O          66.1674   91.2855   14.8135 O.2     1  UNL1       -0.2745
      2 C          65.5186   91.8242   13.5730 C.2     1  UNL1        0.2301
      3 N          64.4278   91.0459   12.8986 N.am    1  UNL1       -0.2793
      4 C          63.9860   89.7291   13.4649 C.3     1  UNL1        0.0935
      5 C          62.8953   88.9509   12.7905 C.3     1  UNL1        0.0240
      6 C          62.2465   89.4895   11.5500 C.3     1  UNL1        0.0304
      7 C          62.6883   90.8064   10.9838 C.3     1  UNL1        0.0240
      8 C          63.7790   91.5846   11.6581 C.3     1  UNL1        0.0935
      9 C          61.1557   88.7113   10.8756 C.3     1  UNL1        0.1128
     10 O          60.2965   89.3698    9.8373 O.3     1  UNL1       -0.3844
     11 H          59.6459   88.7321    9.5042 H       1  UNL1        0.2103
     12 C          60.9243   87.2746   11.2396 C.3     1  UNL1        0.0564
     13 C          61.7162   86.1933   10.5661 C.3     1  UNL1        0.1119
     14 C          62.6676   85.2484   11.2383 C.ar    1  UNL1       -0.0002
     15 C          63.0905   85.0991   12.6697 C.ar    1  UNL1       -0.0024
     16 C          64.0809   84.0397   13.0525 C.ar    1  UNL1       -0.0003
     17 C          64.6484   83.1295   12.0040 C.ar    1  UNL1        0.0000
     18 C          64.2256   83.2787   10.5726 C.ar    1  UNL1        0.0012
     19 C          63.2352   84.3381   10.1898 C.ar    1  UNL1        0.0152
     20 C          62.6345   84.7206    8.8696 C.ar    1  UNL1        0.0804
     21 C          62.6141   84.3944    7.4055 C.ar    1  UNL1        0.1177
     22 N          61.6626   85.3394    6.7334 N.ar    1  UNL1       -0.2223
     23 C          61.0950   86.2496    7.7819 C.ar    1  UNL1        0.1788
     24 N          61.6957   85.8671    9.1021 N.ar    1  UNL1       -0.3069
     25 C          65.9605   93.1411   13.0068 C.3     1  UNL1        0.1116
     26 C          66.6114   93.1964   11.6565 C.ar    1  UNL1       -0.0129
     27 C          66.3104   94.3329   10.7250 C.ar    1  UNL1       -0.0015
     28 C          66.9613   94.3883    9.3747 C.ar    1  UNL1        0.0293
     29 C          67.9132   93.3072    8.9560 C.ar    1  UNL1        0.1401
     30 F          68.5641   93.3626    7.6058 F       1  UNL1       -0.2042
     31 C          68.2142   92.1707    9.8876 C.ar    1  UNL1        0.0293
     32 C          67.5632   92.1153   11.2379 C.ar    1  UNL1       -0.0015
@<TRIPOS>BOND
     1     1     2    2
     2     2    25    1
     3    25    26    1
     4    26    27   ar
     5    27    28   ar
     6    28    29   ar
     7    29    30    1
     8    29    31   ar
     9    31    32   ar
    10     2     3   am
    11     3     4    1
    12     4     5    1
    13     5     6    1
    14     6     9    1
    15     9    10    1
    16     9    12    1
    17    12    13    1
    18    13    14    1
    19    14    15   ar
    20    15    16   ar
    21    16    17   ar
    22    17    18   ar
    23    18    19   ar
    24    19    20    1
    25    20    21   ar
    26    21    22   ar
    27    22    23   ar
    28    23    24   ar
    29     6     7    1
    30     7     8    1
    31    32    26   ar
    32     8     3    1
    33    24    13    1
    34    19    14   ar
    35    24    20   ar
    36    10    11    1
@<TRIPOS>MOLECULE
*****
 32 36 0 0 0
SMALL
GASTEIGER

@<TRIPOS>ATOM
      1 O          62.9233   83.1384   16.0104 O.2     1  UNL1       -0.2745
      2 C          63.8169   84.0246   15.1942 C.2     1  UNL1        0.2301
      3 N          63.7786   85.5115   15.3885 N.am    1  UNL1       -0.2793
      4 C          62.8468   86.1121   16.3989 C.3     1  UNL1        0.0935
      5 C          62.8086   87.5990   16.5931 C.3     1  UNL1        0.0240
      6 C          63.7021   88.4852   15.7769 C.3     1  UNL1        0.0304
      7 C          64.6339   87.8846   14.7665 C.3     1  UNL1        0.0240
      8 C          64.6721   86.3977   14.5723 C.3     1  UNL1        0.0935
      9 C          63.6639   89.9721   15.9711 C.3     1  UNL1        0.1128
     10 O          62.7100   90.5752   16.9593 O.3     1  UNL1       -0.3844
     11 H          62.8132   91.5396   16.9611 H       1  UNL1        0.2103
     12 C          64.5796   90.8560   15.1772 C.3     1  UNL1        0.0564
     13 C          64.3010   91.1140   13.7260 C.3     1  UNL1        0.1119
     14 C          65.1169   91.9793   12.8119 C.ar    1  UNL1       -0.0002
     15 C          66.3593   92.7883   13.0396 C.ar    1  UNL1       -0.0024
     16 C          66.9625   93.5702   11.9106 C.ar    1  UNL1       -0.0003
     17 C          66.3233   93.5431   10.5538 C.ar    1  UNL1        0.0000
     18 C          65.0809   92.7340   10.3261 C.ar    1  UNL1        0.0012
     19 C          64.4777   91.9521   11.4552 C.ar    1  UNL1        0.0152
     20 C          63.2667   91.0702   11.5309 C.ar    1  UNL1        0.0804
     21 C          62.1232   90.5083   10.7391 C.ar    1  UNL1        0.1177
     22 N          61.3074   89.6431   11.6533 N.ar    1  UNL1       -0.2223
     23 C          61.9466   89.6702   13.0100 C.ar    1  UNL1        0.1788
     24 N          63.1575   90.5522   12.9343 N.ar    1  UNL1       -0.3069
     25 C          64.7487   83.4239   14.1838 C.3     1  UNL1        0.1116
     26 C          64.2008   82.6111   13.0484 C.ar    1  UNL1       -0.0129
     27 C          63.3819   81.3863   13.3296 C.ar    1  UNL1       -0.0015
     28 C          62.8340   80.5734   12.1943 C.ar    1  UNL1        0.0293
     29 C          63.1050   80.9855   10.7777 C.ar    1  UNL1        0.1401
     30 F          62.5571   80.1727    9.6422 F       1  UNL1       -0.2042
     31 C          63.9240   82.2104   10.4964 C.ar    1  UNL1        0.0293
     32 C          64.4718   83.0232   11.6318 C.ar    1  UNL1       -0.0015
@<TRIPOS>BOND
     1     1     2    2
     2     2    25    1
     3    25    26    1
     4    26    27   ar
     5    27    28   ar
     6    28    29   ar
     7    29    30    1
     8    29    31   ar
     9    31    32   ar
    10     2     3   am
    11     3     4    1
    12     4     5    1
    13     5     6    1
    14     6     9    1
    15     9    10    1
    16     9    12    1
    17    12    13    1
    18    13    14    1
    19    14    15   ar
    20    15    16   ar
    21    16    17   ar
    22    17    18   ar
    23    18    19   ar
    24    19    20    1
    25    20    21   ar
    26    21    22   ar
    27    22    23   ar
    28    23    24   ar
    29     6     7    1
    30     7     8    1
    31    32    26   ar
    32     8     3    1
    33    24    13    1
    34    19    14   ar
    35    24    20   ar
    36    10    11    1
@<TRIPOS>MOLECULE
*****
 32 36 0 0 0
SMALL
GASTEIGER

@<TRIPOS>ATOM
      1 O          66.8103   94.7920   14.0871 O.2     1  UNL1       -0.2745
      2 C          66.0993   93.8612   13.1501 C.2     1  UNL1        0.2301
      3 N          65.5538   92.5590   13.6570 N.am    1  UNL1       -0.2793
      4 C          65.7193   92.1878   15.1008 C.3     1  UNL1        0.0935
      5 C          65.1738   90.8856   15.6076 C.3     1  UNL1        0.0240
      6 C          64.4628   89.9548   14.6706 C.3     1  UNL1        0.0304
      7 C          64.2972   90.3261   13.2267 C.3     1  UNL1        0.0240
      8 C          64.8428   91.6282   12.7199 C.3     1  UNL1        0.0935
      9 C          63.9173   88.6527   15.1774 C.3     1  UNL1        0.1128
     10 O          62.7177   88.6417   16.0778 O.3     1  UNL1       -0.3844
     11 H          62.4973   87.7265   16.3117 H       1  UNL1        0.2103
     12 C          64.5714   87.3614   14.7836 C.3     1  UNL1        0.0564
     13 C          63.8299   86.3742   13.9318 C.3     1  UNL1        0.1119
     14 C          63.1207   86.6774   12.6453 C.ar    1  UNL1       -0.0002
     15 C          62.9445   87.9507   11.8722 C.ar    1  UNL1       -0.0024
     16 C          62.1675   87.9477   10.5892 C.ar    1  UNL1       -0.0003
     17 C          61.5666   86.6715   10.0793 C.ar    1  UNL1        0.0000
     18 C          61.7428   85.3982   10.8523 C.ar    1  UNL1        0.0012
     19 C          62.5199   85.4011   12.1353 C.ar    1  UNL1        0.0152
     20 C          62.8576   84.3092   13.1067 C.ar    1  UNL1        0.0804
     21 C          62.6950   82.8455   13.3919 C.ar    1  UNL1        0.1177
     22 N          63.4042   82.5424   14.6785 N.ar    1  UNL1       -0.2223
     23 C          64.0050   83.8187   15.1884 C.ar    1  UNL1        0.1788
     24 N          63.6673   84.9106   14.2170 N.ar    1  UNL1       -0.3069
     25 C          65.9338   94.2325   11.7063 C.3     1  UNL1        0.1116
     26 C          66.8483   93.6468   10.6716 C.ar    1  UNL1       -0.0129
     27 C          67.1128   94.3914    9.3966 C.ar    1  UNL1       -0.0015
     28 C          68.0274   93.8058    8.3619 C.ar    1  UNL1        0.0293
     29 C          68.6774   92.4755    8.6023 C.ar    1  UNL1        0.1401
     30 F          69.5920   91.8898    7.5676 F       1  UNL1       -0.2042
     31 C          68.4130   91.7308    9.8773 C.ar    1  UNL1        0.0293
     32 C          67.4984   92.3165   10.9120 C.ar    1  UNL1       -0.0015
@<TRIPOS>BOND
     1     1     2    2
     2     2    25    1
     3    25    26    1
     4    26    27   ar
     5    27    28   ar
     6    28    29   ar
     7    29    30    1
     8    29    31   ar
     9    31    32   ar
    10     2     3   am
    11     3     4    1
    12     4     5    1
    13     5     6    1
    14     6     9    1
    15     9    10    1
    16     9    12    1
    17    12    13    1
    18    13    14    1
    19    14    15   ar
    20    15    16   ar
    21    16    17   ar
    22    17    18   ar
    23    18    19   ar
    24    19    20    1
    25    20    21   ar
    26    21    22   ar
    27    22    23   ar
    28    23    24   ar
    29     6     7    1
    30     7     8    1
    31    32    26   ar
    32     8     3    1
    33    24    13    1
    34    19    14   ar
    35    24    20   ar
    36    10    11    1
@<TRIPOS>MOLECULE
*****
 32 36 0 0 0
SMALL
GASTEIGER

@<TRIPOS>ATOM
      1 O          60.8927   89.3304    9.0440 O.2     1  UNL1       -0.2745
      2 C          61.4944   88.8333   10.3249 C.2     1  UNL1        0.2301
      3 N          62.5140   89.6639   11.0465 N.am    1  UNL1       -0.2793
      4 C          62.9318   90.9915   10.4871 C.3     1  UNL1        0.0935
      5 C          63.9513   91.8220   11.2088 C.3     1  UNL1        0.0240
      6 C          64.5531   91.3248   12.4897 C.3     1  UNL1        0.0304
      7 C          64.1354   89.9972   13.0490 C.3     1  UNL1        0.0240
      8 C          63.1158   89.1667   12.3273 C.3     1  UNL1        0.0935
      9 C          65.5727   92.1553   13.2113 C.3     1  UNL1        0.1128
     10 O          66.2693   91.6044   14.4201 O.3     1  UNL1       -0.3844
     11 H          66.8920   92.2642   14.7632 H       1  UNL1        0.2103
     12 C          65.8957   93.5368   12.7241 C.3     1  UNL1        0.0564
     13 C          66.4252   93.7375   11.3351 C.3     1  UNL1        0.1119
     14 C          65.9988   94.8084   10.3752 C.ar    1  UNL1       -0.0002
     15 C          64.9969   95.9187   10.4905 C.ar    1  UNL1       -0.0024
     16 C          64.7803   96.8560    9.3396 C.ar    1  UNL1       -0.0003
     17 C          65.5656   96.6830    8.0734 C.ar    1  UNL1        0.0000
     18 C          66.5675   95.5726    7.9581 C.ar    1  UNL1        0.0012
     19 C          66.7841   94.6354    9.1090 C.ar    1  UNL1        0.0152
     20 C          67.6959   93.4576    9.2864 C.ar    1  UNL1        0.0804
     21 C          68.7448   92.6226    8.6134 C.ar    1  UNL1        0.1177
     22 N          69.1711   91.5518    9.5733 N.ar    1  UNL1       -0.2223
     23 C          68.3858   91.7248   10.8396 C.ar    1  UNL1        0.1788
     24 N          67.4740   92.9027   10.6622 N.ar    1  UNL1       -0.3069
     25 C          61.0767   87.5056   10.8841 C.3     1  UNL1        0.1116
     26 C          61.8938   86.2807   10.5981 C.ar    1  UNL1       -0.0129
     27 C          62.3897   86.0180    9.2071 C.ar    1  UNL1       -0.0015
     28 C          63.2068   84.7930    8.9210 C.ar    1  UNL1        0.0293
     29 C          63.5280   83.8308   10.0260 C.ar    1  UNL1        0.1401
     30 F          64.3451   82.6058    9.7400 F       1  UNL1       -0.2042
     31 C          63.0320   84.0935   11.4171 C.ar    1  UNL1        0.0293
     32 C          62.2149   85.3184   11.7031 C.ar    1  UNL1       -0.0015
@<TRIPOS>BOND
     1     1     2    2
     2     2    25    1
     3    25    26    1
     4    26    27   ar
     5    27    28   ar
     6    28    29   ar
     7    29    30    1
     8    29    31   ar
     9    31    32   ar
    10     2     3   am
    11     3     4    1
    12     4     5    1
    13     5     6    1
    14     6     9    1
    15     9    10    1
    16     9    12    1
    17    12    13    1
    18    13    14    1
    19    14    15   ar
    20    15    16   ar
    21    16    17   ar
    22    17    18   ar
    23    18    19   ar
    24    19    20    1
    25    20    21   ar
    26    21    22   ar
    27    22    23   ar
    28    23    24   ar
    29     6     7    1
    30     7     8    1
    31    32    26   ar
    32     8     3    1
    33    24    13    1
    34    19    14   ar
    35    24    20   ar
    36    10    11    1
@<TRIPOS>MOLECULE
*****
 32 36 0 0 0
SMALL
GASTEIGER

@<TRIPOS>ATOM
      1 O          63.2201   83.3940   16.1586 O.2     1  UNL1       -0.2745
      2 C          64.0010   84.2916   15.2451 C.2     1  UNL1        0.2301
      3 N          63.8909   85.7812   15.3832 N.am    1  UNL1       -0.2793
      4 C          62.9999   86.3731   16.4347 C.3     1  UNL1        0.0935
      5 C          62.8898   87.8627   16.5727 C.3     1  UNL1        0.0240
      6 C          63.6708   88.7603   15.6592 C.3     1  UNL1        0.0304
      7 C          64.5619   88.1684   14.6078 C.3     1  UNL1        0.0240
      8 C          64.6719   86.6788   14.4698 C.3     1  UNL1        0.0935
      9 C          63.5608   90.2498   15.7972 C.3     1  UNL1        0.1128
     10 O          63.4892   90.8736   17.1595 O.3     1  UNL1       -0.3844
     11 H          63.4215   91.8372   17.0708 H       1  UNL1        0.2103
     12 C          63.5223   91.1157   14.5729 C.3     1  UNL1        0.0564
     13 C          64.8001   91.6200   13.9705 C.3     1  UNL1        0.1119
     14 C          66.0548   91.9583   14.7198 C.ar    1  UNL1       -0.0002
     15 C          66.3979   91.9040   16.1789 C.ar    1  UNL1       -0.0024
     16 C          67.7640   92.3134   16.6438 C.ar    1  UNL1       -0.0003
     17 C          68.7869   92.7771   15.6495 C.ar    1  UNL1        0.0000
     18 C          68.4438   92.8314   14.1903 C.ar    1  UNL1        0.0012
     19 C          67.0777   92.4220   13.7255 C.ar    1  UNL1        0.0152
     20 C          66.4552   92.3702   12.3617 C.ar    1  UNL1        0.0804
     21 C          66.7027   92.6249   10.9043 C.ar    1  UNL1        0.1177
     22 N          65.4480   92.2866   10.1551 N.ar    1  UNL1       -0.2223
     23 C          64.4251   91.8229   11.1494 C.ar    1  UNL1        0.1788
     24 N          65.0476   91.8746   12.5131 N.ar    1  UNL1       -0.3069
     25 C          64.8921   83.6996   14.1937 C.3     1  UNL1        0.1116
     26 C          64.3053   82.8539   13.1026 C.ar    1  UNL1       -0.0129
     27 C          63.5397   81.6108   13.4469 C.ar    1  UNL1       -0.0015
     28 C          62.9528   80.7651   12.3558 C.ar    1  UNL1        0.0293
     29 C          63.1316   81.1625   10.9205 C.ar    1  UNL1        0.1401
     30 F          62.5448   80.3168    9.8294 F       1  UNL1       -0.2042
     31 C          63.8973   82.4056   10.5762 C.ar    1  UNL1        0.0293
     32 C          64.4841   83.2513   11.6673 C.ar    1  UNL1       -0.0015
@<TRIPOS>BOND
     1     1     2    2
     2     2    25    1
     3    25    26    1
     4    26    27   ar
     5    27    28   ar
     6    28    29   ar
     7    29    30    1
     8    29    31   ar
     9    31    32   ar
    10     2     3   am
    11     3     4    1
    12     4     5    1
    13     5     6    1
    14     6     9    1
    15     9    10    1
    16     9    12    1
    17    12    13    1
    18    13    14    1
    19    14    15   ar
    20    15    16   ar
    21    16    17   ar
    22    17    18   ar
    23    18    19   ar
    24    19    20    1
    25    20    21   ar
    26    21    22   ar
    27    22    23   ar
    28    23    24   ar
    29     6     7    1
    30     7     8    1
    31    32    26   ar
    32     8     3    1
    33    24    13    1
    34    19    14   ar
    35    24    20   ar
    36    10    11    1
@<TRIPOS>MOLECULE
*****
 32 36 0 0 0
SMALL
GASTEIGER

@<TRIPOS>ATOM
      1 O          63.7352   82.6507    9.6789 O.2     1  UNL1       -0.2745
      2 C          63.2584   83.4253   10.8716 C.2     1  UNL1        0.2301
      3 N          62.8408   84.8578   10.7175 N.am    1  UNL1       -0.2793
      4 C          62.9001   85.5156    9.3708 C.3     1  UNL1        0.0935
      5 C          62.4825   86.9480    9.2168 C.3     1  UNL1        0.0240
      6 C          62.0057   87.7226   10.4096 C.3     1  UNL1        0.0304
      7 C          61.9463   87.0648   11.7563 C.3     1  UNL1        0.0240
      8 C          62.3639   85.6324   11.9103 C.3     1  UNL1        0.0935
      9 C          61.5881   89.1551   10.2556 C.3     1  UNL1        0.1128
     10 O          60.1319   89.5147   10.2443 O.3     1  UNL1       -0.3844
     11 H          60.0366   90.4741   10.1374 H       1  UNL1        0.2103
     12 C          62.6268   90.2279   10.1129 C.3     1  UNL1        0.0564
     13 C          63.3432   90.7442   11.3254 C.3     1  UNL1        0.1119
     14 C          64.4575   91.7484   11.3301 C.ar    1  UNL1       -0.0002
     15 C          65.1466   92.4882   10.2221 C.ar    1  UNL1       -0.0024
     16 C          66.2523   93.4514   10.5376 C.ar    1  UNL1       -0.0003
     17 C          66.6689   93.6748   11.9612 C.ar    1  UNL1        0.0000
     18 C          65.9797   92.9351   13.0692 C.ar    1  UNL1        0.0012
     19 C          64.8740   91.9719   12.7537 C.ar    1  UNL1        0.0152
     20 C          64.0172   91.1058   13.6287 C.ar    1  UNL1        0.0804
     21 C          63.7451   90.7086   15.0495 C.ar    1  UNL1        0.1177
     22 N          62.6308   89.7044   15.0447 N.ar    1  UNL1       -0.2223
     23 C          62.2142   89.4810   13.6211 C.ar    1  UNL1        0.1788
     24 N          63.0711   90.3471   12.7460 N.ar    1  UNL1       -0.3069
     25 C          63.1991   82.7674   12.2183 C.3     1  UNL1        0.1116
     26 C          63.3521   83.5909   13.4627 C.ar    1  UNL1       -0.0129
     27 C          62.2399   83.6450   14.4677 C.ar    1  UNL1       -0.0015
     28 C          62.3929   84.4684   15.7121 C.ar    1  UNL1        0.0293
     29 C          63.6581   85.2377   15.9515 C.ar    1  UNL1        0.1401
     30 F          63.8112   86.0612   17.1959 F       1  UNL1       -0.2042
     31 C          64.7704   85.1836   14.9465 C.ar    1  UNL1        0.0293
     32 C          64.6174   84.3602   13.7021 C.ar    1  UNL1       -0.0015
@<TRIPOS>BOND
     1     1     2    2
     2     2    25    1
     3    25    26    1
     4    26    27   ar
     5    27    28   ar
     6    28    29   ar
     7    29    30    1
     8    29    31   ar
     9    31    32   ar
    10     2     3   am
    11     3     4    1
    12     4     5    1
    13     5     6    1
    14     6     9    1
    15     9    10    1
    16     9    12    1
    17    12    13    1
    18    13    14    1
    19    14    15   ar
    20    15    16   ar
    21    16    17   ar
    22    17    18   ar
    23    18    19   ar
    24    19    20    1
    25    20    21   ar
    26    21    22   ar
    27    22    23   ar
    28    23    24   ar
    29     6     7    1
    30     7     8    1
    31    32    26   ar
    32     8     3    1
    33    24    13    1
    34    19    14   ar
    35    24    20   ar
    36    10    11    1
@<TRIPOS>MOLECULE
*****
 32 36 0 0 0
SMALL
GASTEIGER

@<TRIPOS>ATOM
      1 O          64.4190   83.7264   15.4160 O.2     1  UNL1       -0.2745
      2 C          63.3450   83.7524   14.3691 C.2     1  UNL1        0.2301
      3 N          63.1203   84.9928   13.5560 N.am    1  UNL1       -0.2793
      4 C          63.9694   86.2069   13.7897 C.3     1  UNL1        0.0935
      5 C          63.7446   87.4472   12.9766 C.3     1  UNL1        0.0240
      6 C          62.6707   87.4732   11.9297 C.3     1  UNL1        0.0304
      7 C          61.8215   86.2591   11.6959 C.3     1  UNL1        0.0240
      8 C          62.0464   85.0188   12.5091 C.3     1  UNL1        0.0935
      9 C          62.4459   88.7135   11.1165 C.3     1  UNL1        0.1128
     10 O          62.5306   88.6548    9.6201 O.3     1  UNL1       -0.3844
     11 H          62.3608   89.5359    9.2518 H       1  UNL1        0.2103
     12 C          62.1363   90.0125   11.7999 C.3     1  UNL1        0.0564
     13 C          63.1995   90.7162   12.5902 C.3     1  UNL1        0.1119
     14 C          64.2817   91.5904   12.0293 C.ar    1  UNL1       -0.0002
     15 C          64.6135   92.0009   10.6252 C.ar    1  UNL1       -0.0024
     16 C          65.7818   92.9048   10.3645 C.ar    1  UNL1       -0.0003
     17 C          66.6183   93.3981   11.5077 C.ar    1  UNL1        0.0000
     18 C          66.2865   92.9876   12.9117 C.ar    1  UNL1        0.0012
     19 C          65.1182   92.0837   13.1725 C.ar    1  UNL1        0.0152
     20 C          64.5529   91.5144   14.4399 C.ar    1  UNL1        0.0804
     21 C          64.7205   91.4675   15.9298 C.ar    1  UNL1        0.1177
     22 N          63.6382   90.5932   16.4907 N.ar    1  UNL1       -0.2223
     23 C          62.8018   90.0999   15.3474 C.ar    1  UNL1        0.1788
     24 N          63.3671   90.6692   14.0800 N.ar    1  UNL1       -0.3069
     25 C          62.4959   82.5382   14.1354 C.3     1  UNL1        0.1116
     26 C          62.6989   81.7068   12.9035 C.ar    1  UNL1       -0.0129
     27 C          62.4086   80.2356   12.9354 C.ar    1  UNL1       -0.0015
     28 C          62.6116   79.4041   11.7035 C.ar    1  UNL1        0.0293
     29 C          63.1049   80.0440   10.4397 C.ar    1  UNL1        0.1401
     30 F          63.3079   79.2127    9.2078 F       1  UNL1       -0.2042
     31 C          63.3953   81.5154   10.4078 C.ar    1  UNL1        0.0293
     32 C          63.1922   82.3468   11.6397 C.ar    1  UNL1       -0.0015
@<TRIPOS>BOND
     1     1     2    2
     2     2    25    1
     3    25    26    1
     4    26    27   ar
     5    27    28   ar
     6    28    29   ar
     7    29    30    1
     8    29    31   ar
     9    31    32   ar
    10     2     3   am
    11     3     4    1
    12     4     5    1
    13     5     6    1
    14     6     9    1
    15     9    10    1
    16     9    12    1
    17    12    13    1
    18    13    14    1
    19    14    15   ar
    20    15    16   ar
    21    16    17   ar
    22    17    18   ar
    23    18    19   ar
    24    19    20    1
    25    20    21   ar
    26    21    22   ar
    27    22    23   ar
    28    23    24   ar
    29     6     7    1
    30     7     8    1
    31    32    26   ar
    32     8     3    1
    33    24    13    1
    34    19    14   ar
    35    24    20   ar
    36    10    11    1
