@<TRIPOS>MOLECULE
*****
 36 39 0 0 0
SMALL
GASTEIGER

@<TRIPOS>ATOM
      1 C          64.4147   90.8138   13.8774 C.3     1  UNL1        0.1225
      2 O          63.8602   91.7113   12.8112 O.3     1  UNL1       -0.3559
      3 C          63.0633   91.1301   11.6811 C.3     1  UNL1        0.1441
      4 C          62.8208   89.6512   11.6173 C.3     1  UNL1        0.0589
      5 C          63.3752   88.7536   12.6836 C.3     1  UNL1        0.1466
      6 C          63.1327   87.2747   12.6198 C.ar    1  UNL1        0.0618
      7 C          62.3358   86.6934   11.4898 C.ar    1  UNL1        0.1407
      8 F          61.6526   87.2766   10.2885 F       1  UNL1       -0.2043
      9 C          62.0932   85.2145   11.4260 C.ar    1  UNL1        0.0319
     10 C          62.6477   84.3169   12.4923 C.ar    1  UNL1        0.0351
     11 C          63.4446   84.8982   13.6223 C.ar    1  UNL1        0.1737
     12 F          63.9991   84.0006   14.6886 F       1  UNL1       -0.2010
     13 C          63.6871   86.3771   13.6861 C.ar    1  UNL1        0.1655
     14 O          64.4841   86.9584   14.8161 O.3     1  UNL1       -0.4732
     15 C          64.7266   88.4373   14.8799 C.3     1  UNL1        0.2098
     16 C          64.1721   89.3349   13.8136 C.3     1  UNL1        0.0957
     17 S          62.5783   88.1723   11.5536 S.O2    1  UNL1        0.0094
     18 O          62.9750   87.8266   10.9548 O.2     1  UNL1       -0.1684
     19 O          61.1538   88.4468   11.9351 O.2     1  UNL1       -0.1684
     20 C          61.7813   87.5910   10.4235 C.ar    1  UNL1        0.1059
     21 C          60.2862   87.7122   10.4201 C.ar    1  UNL1        0.0192
     22 C          59.4892   87.1309    9.2901 C.ar    1  UNL1        0.0127
     23 C          60.1874   86.4285    8.1634 C.ar    1  UNL1        0.0578
     24 CL         59.3905   85.8472    7.0334 Cl      1  UNL1       -0.0822
     25 C          61.6825   86.3073    8.1669 C.ar    1  UNL1        0.0127
     26 C          62.4794   86.8886    9.2970 C.ar    1  UNL1        0.0192
     27 C          65.2116   91.3951   15.0075 C.3     1  UNL1        0.0550
     28 C          66.4983   92.1129   14.7263 C.3     1  UNL1        0.1534
     29 S          66.6696   92.8706   13.4431 S.O2    1  UNL1       -0.0085
     30 O          67.4187   91.7103   12.8580 O.2     1  UNL1       -0.1729
     31 O          65.9204   94.0309   14.0283 O.2     1  UNL1       -0.1729
     32 C          66.8408   93.6283   12.1599 C.3     1  UNL1        0.1678
     33 C          67.0348   92.8862   10.8709 C.3     1  UNL1        0.0942
     34 C          68.6124   92.3239    8.8847 C.3     1  UNL1        0.0859
     35 N          68.4175   92.6688   10.3314 N.3     1  UNL1       -0.2948
     36 H          68.9386   93.5289   10.5018 H       1  UNL1        0.1233
@<TRIPOS>BOND
     1    34    35    1
     2    35    33    1
     3    33    32    1
     4    32    29    1
     5    29    30    2
     6    29    31    2
     7    29    28    1
     8    28    27    1
     9     1    27    1
    10     1     2    1
    11     2     3    1
    12     3     4    1
    13     4     5    1
    14     5    17    1
    15    17    18    2
    16    17    19    2
    17    17    20    1
    18    20    21   ar
    19    21    22   ar
    20    22    23   ar
    21    23    24    1
    22    23    25   ar
    23    25    26   ar
    24     5     6    1
    25     6     7   ar
    26     7     8    1
    27     7     9   ar
    28     9    10   ar
    29    10    11   ar
    30    11    12    1
    31    11    13   ar
    32    13    14    1
    33    14    15    1
    34    16    15    1
    35    16     1    1
    36    16     5    1
    37    26    20   ar
    38    13     6   ar
    39    35    36    1
@<TRIPOS>MOLECULE
*****
 36 39 0 0 0
SMALL
GASTEIGER

@<TRIPOS>ATOM
      1 C          64.3290   90.8558   13.8904 C.3     1  UNL1        0.1225
      2 O          63.7718   91.7333   12.8090 O.3     1  UNL1       -0.3559
      3 C          63.0029   91.1268   11.6728 C.3     1  UNL1        0.1441
      4 C          62.7914   89.6428   11.6179 C.3     1  UNL1        0.0589
      5 C          63.3486   88.7654   12.6994 C.3     1  UNL1        0.1466
      6 C          63.1370   87.2813   12.6446 C.ar    1  UNL1        0.0618
      7 C          62.3682   86.6748   11.5083 C.ar    1  UNL1        0.1407
      8 F          61.6906   87.2342   10.2926 F       1  UNL1       -0.2043
      9 C          62.1566   85.1909   11.4535 C.ar    1  UNL1        0.0319
     10 C          62.7139   84.3133   12.5349 C.ar    1  UNL1        0.0351
     11 C          63.4827   84.9198   13.6712 C.ar    1  UNL1        0.1737
     12 F          64.0399   84.0424   14.7526 F       1  UNL1       -0.2010
     13 C          63.6943   86.4039   13.7260 C.ar    1  UNL1        0.1655
     14 O          64.4631   87.0104   14.8622 O.3     1  UNL1       -0.4732
     15 C          64.6747   88.4943   14.9171 C.3     1  UNL1        0.2098
     16 C          64.1174   89.3719   13.8356 C.3     1  UNL1        0.0957
     17 S          62.5798   88.1589   11.5631 S.O2    1  UNL1        0.0094
     18 O          62.9919   87.8160   10.9732 O.2     1  UNL1       -0.1684
     19 O          61.1448   88.4082   11.9218 O.2     1  UNL1       -0.1684
     20 C          61.8109   87.5524   10.4269 C.ar    1  UNL1        0.1059
     21 C          62.5385   86.8463    9.3213 C.ar    1  UNL1        0.0192
     22 C          61.7697   86.2398    8.1851 C.ar    1  UNL1        0.0127
     23 C          60.2733   86.3394    8.1544 C.ar    1  UNL1        0.0578
     24 CL         59.5044   85.7329    7.0181 Cl      1  UNL1       -0.0822
     25 C          59.5458   87.0454    9.2599 C.ar    1  UNL1        0.0127
     26 C          60.3146   87.6519   10.3961 C.ar    1  UNL1        0.0192
     27 C          65.0979   91.4623   15.0267 C.3     1  UNL1        0.0550
     28 C          66.4339   92.0958   14.7746 C.3     1  UNL1        0.1534
     29 S          66.7016   92.7885   13.4714 S.O2    1  UNL1       -0.0085
     30 O          65.8718   93.9545   13.9207 O.2     1  UNL1       -0.1729
     31 O          67.5314   91.6225   13.0220 O.2     1  UNL1       -0.1729
     32 C          66.9693   93.4812   12.1681 C.3     1  UNL1        0.1678
     33 C          65.8312   93.8231   11.2528 C.3     1  UNL1        0.0942
     34 C          66.5780   96.2879   10.9110 C.3     1  UNL1        0.0859
     35 N          65.4893   95.2588   10.9851 N.3     1  UNL1       -0.2948
     36 H          64.9998   95.2831   10.0905 H       1  UNL1        0.1233
@<TRIPOS>BOND
     1    34    35    1
     2    35    33    1
     3    33    32    1
     4    32    29    1
     5    29    30    2
     6    29    31    2
     7    29    28    1
     8    28    27    1
     9     1    27    1
    10     1     2    1
    11     2     3    1
    12     3     4    1
    13     4     5    1
    14     5    17    1
    15    17    18    2
    16    17    19    2
    17    17    20    1
    18    20    21   ar
    19    21    22   ar
    20    22    23   ar
    21    23    24    1
    22    23    25   ar
    23    25    26   ar
    24     5     6    1
    25     6     7   ar
    26     7     8    1
    27     7     9   ar
    28     9    10   ar
    29    10    11   ar
    30    11    12    1
    31    11    13   ar
    32    13    14    1
    33    14    15    1
    34    16    15    1
    35    16     1    1
    36    16     5    1
    37    26    20   ar
    38    13     6   ar
    39    35    36    1
@<TRIPOS>MOLECULE
*****
 36 39 0 0 0
SMALL
GASTEIGER

@<TRIPOS>ATOM
      1 C          63.2871   90.0760   13.0972 C.3     1  UNL1        0.1225
      2 O          62.8487   90.8448   11.8861 O.3     1  UNL1       -0.3559
      3 C          62.4264   90.1140   10.6462 C.3     1  UNL1        0.1441
      4 C          62.4424   88.6144   10.6173 C.3     1  UNL1        0.0589
      5 C          62.8807   87.8456   11.8284 C.3     1  UNL1        0.1466
      6 C          62.8968   86.3459   11.7996 C.ar    1  UNL1        0.0618
      7 C          62.4744   85.6151   10.5596 C.ar    1  UNL1        0.1407
      8 F          61.9923   86.0495    9.2073 F       1  UNL1       -0.2043
      9 C          62.4904   84.1155   10.5308 C.ar    1  UNL1        0.0319
     10 C          62.9288   83.3466   11.7419 C.ar    1  UNL1        0.0351
     11 C          63.3511   84.0775   12.9819 C.ar    1  UNL1        0.1737
     12 F          63.7895   83.3087   14.1930 F       1  UNL1       -0.2010
     13 C          63.3351   85.5771   13.0107 C.ar    1  UNL1        0.1655
     14 O          63.7575   86.3080   14.2507 O.3     1  UNL1       -0.4732
     15 C          63.7414   87.8076   14.2795 C.3     1  UNL1        0.2098
     16 C          63.3031   88.5764   13.0684 C.3     1  UNL1        0.0957
     17 S          62.4584   87.1147   10.5885 S.O2    1  UNL1        0.0094
     18 O          62.9067   87.1970    9.9345 O.2     1  UNL1       -0.1684
     19 O          61.2111   86.3907   11.0009 O.2     1  UNL1       -0.1684
     20 C          62.0360   86.3839    9.3485 C.ar    1  UNL1        0.1059
     21 C          63.0491   85.6254    8.5432 C.ar    1  UNL1        0.0192
     22 C          62.6268   84.8946    7.3032 C.ar    1  UNL1        0.0127
     23 C          61.1914   84.9222    6.8686 C.ar    1  UNL1        0.0578
     24 CL         60.7690   84.1914    5.6286 Cl      1  UNL1       -0.0822
     25 C          60.1784   85.6807    7.6739 C.ar    1  UNL1        0.0127
     26 C          60.6007   86.4115    8.9138 C.ar    1  UNL1        0.0192
     27 C          63.7094   90.8069   14.3372 C.3     1  UNL1        0.0550
     28 C          65.1303   90.7223   14.8104 C.3     1  UNL1        0.1534
     29 S          65.9734   91.9610   14.8776 S.O2    1  UNL1       -0.0085
     30 O          66.7767   91.4778   13.7066 O.2     1  UNL1       -0.1729
     31 O          65.1701   92.4442   16.0486 O.2     1  UNL1       -0.1729
     32 C          66.8166   93.1998   14.9449 C.3     1  UNL1        0.1678
     33 C          66.7052   94.2420   13.8719 C.3     1  UNL1        0.0942
     34 C          66.2427   94.2343   11.3153 C.3     1  UNL1        0.0859
     35 N          65.7629   94.0378   12.7228 N.3     1  UNL1       -0.2948
     36 H          65.4240   93.0779   12.7870 H       1  UNL1        0.1233
@<TRIPOS>BOND
     1    34    35    1
     2    35    33    1
     3    33    32    1
     4    32    29    1
     5    29    30    2
     6    29    31    2
     7    29    28    1
     8    28    27    1
     9     1    27    1
    10     1     2    1
    11     2     3    1
    12     3     4    1
    13     4     5    1
    14     5    17    1
    15    17    18    2
    16    17    19    2
    17    17    20    1
    18    20    21   ar
    19    21    22   ar
    20    22    23   ar
    21    23    24    1
    22    23    25   ar
    23    25    26   ar
    24     5     6    1
    25     6     7   ar
    26     7     8    1
    27     7     9   ar
    28     9    10   ar
    29    10    11   ar
    30    11    12    1
    31    11    13   ar
    32    13    14    1
    33    14    15    1
    34    16    15    1
    35    16     1    1
    36    16     5    1
    37    26    20   ar
    38    13     6   ar
    39    35    36    1
@<TRIPOS>MOLECULE
*****
 36 39 0 0 0
SMALL
GASTEIGER

@<TRIPOS>ATOM
      1 C          64.2268   89.1445   14.2577 C.3     1  UNL1        0.1225
      2 O          64.8267   88.1685   15.2259 O.3     1  UNL1       -0.3559
      3 C          64.7004   86.6942   14.9798 C.3     1  UNL1        0.1441
      4 C          63.9743   86.1960   13.7656 C.3     1  UNL1        0.0589
      5 C          63.3744   87.1720   12.7974 C.3     1  UNL1        0.1466
      6 C          62.6482   86.6738   11.5830 C.ar    1  UNL1        0.0618
      7 C          62.5220   85.1995   11.3370 C.ar    1  UNL1        0.1407
      8 F          62.9849   83.9769   12.0724 F       1  UNL1       -0.2043
      9 C          61.7958   84.7013   10.1227 C.ar    1  UNL1        0.0319
     10 C          61.1959   85.6774    9.1544 C.ar    1  UNL1        0.0351
     11 C          61.3222   87.1517    9.4005 C.ar    1  UNL1        0.1737
     12 F          60.7224   88.1277    8.4323 F       1  UNL1       -0.2010
     13 C          62.0484   87.6499   10.6148 C.ar    1  UNL1        0.1655
     14 O          62.1747   89.1242   10.8609 O.3     1  UNL1       -0.4732
     15 C          62.9008   89.6224   12.0752 C.3     1  UNL1        0.2098
     16 C          63.5007   88.6463   13.0434 C.3     1  UNL1        0.0957
     17 S          63.2481   85.6977   12.5513 S.O2    1  UNL1        0.0094
     18 O          63.9139   85.2842   12.4058 O.2     1  UNL1       -0.1684
     19 O          61.7757   85.4354   12.6657 O.2     1  UNL1       -0.1684
     20 C          63.1219   84.2235   12.3052 C.ar    1  UNL1        0.1059
     21 C          63.8842   83.5823   11.1837 C.ar    1  UNL1        0.0192
     22 C          63.7580   82.1080   10.9377 C.ar    1  UNL1        0.0127
     23 C          62.8693   81.2749   11.8131 C.ar    1  UNL1        0.0578
     24 CL         62.7430   79.8006   11.5670 Cl      1  UNL1       -0.0822
     25 C          62.1070   81.9161   12.9345 C.ar    1  UNL1        0.0127
     26 C          62.2333   83.3904   13.1806 C.ar    1  UNL1        0.0192
     27 C          64.3531   90.6188   14.5038 C.3     1  UNL1        0.0550
     28 C          65.7038   91.2706   14.4773 C.3     1  UNL1        0.1534
     29 S          66.0345   92.2677   13.4065 S.O2    1  UNL1       -0.0085
     30 O          64.5884   92.3237   13.0120 O.2     1  UNL1       -0.1729
     31 O          67.4806   92.2117   13.8011 O.2     1  UNL1       -0.1729
     32 C          66.3653   93.2647   12.3358 C.3     1  UNL1        0.1678
     33 C          66.7575   92.7930   10.9670 C.3     1  UNL1        0.0942
     34 C          68.7810   92.4770    9.3684 C.3     1  UNL1        0.0859
     35 N          68.1491   92.2927   10.7163 N.3     1  UNL1       -0.2948
     36 H          68.7555   92.7579   11.3918 H       1  UNL1        0.1233
@<TRIPOS>BOND
     1    34    35    1
     2    35    33    1
     3    33    32    1
     4    32    29    1
     5    29    30    2
     6    29    31    2
     7    29    28    1
     8    28    27    1
     9     1    27    1
    10     1     2    1
    11     2     3    1
    12     3     4    1
    13     4     5    1
    14     5    17    1
    15    17    18    2
    16    17    19    2
    17    17    20    1
    18    20    21   ar
    19    21    22   ar
    20    22    23   ar
    21    23    24    1
    22    23    25   ar
    23    25    26   ar
    24     5     6    1
    25     6     7   ar
    26     7     8    1
    27     7     9   ar
    28     9    10   ar
    29    10    11   ar
    30    11    12    1
    31    11    13   ar
    32    13    14    1
    33    14    15    1
    34    16    15    1
    35    16     1    1
    36    16     5    1
    37    26    20   ar
    38    13     6   ar
    39    35    36    1
@<TRIPOS>MOLECULE
*****
 36 39 0 0 0
SMALL
GASTEIGER

@<TRIPOS>ATOM
      1 C          60.1687   88.5341    8.2005 C.3     1  UNL1        0.1225
      2 O          59.8237   87.1865    7.6392 O.3     1  UNL1       -0.3559
      3 C          60.3410   85.9437    8.3007 C.3     1  UNL1        0.1441
      4 C          61.2034   86.0483    9.5236 C.3     1  UNL1        0.0589
      5 C          61.5484   87.3959   10.0848 C.3     1  UNL1        0.1466
      6 C          62.4108   87.5006   11.3077 C.ar    1  UNL1        0.0618
      7 C          62.9282   86.2577   11.9692 C.ar    1  UNL1        0.1407
      8 F          62.7861   84.7912   11.6878 F       1  UNL1       -0.2043
      9 C          63.7905   86.3623   13.1921 C.ar    1  UNL1        0.0319
     10 C          64.1356   87.7099   13.7534 C.ar    1  UNL1        0.0351
     11 C          63.6182   88.9528   13.0919 C.ar    1  UNL1        0.1737
     12 F          63.9632   90.3003   13.6532 F       1  UNL1       -0.2010
     13 C          62.7558   88.8481   11.8690 C.ar    1  UNL1        0.1655
     14 O          62.2385   90.0910   11.2075 O.3     1  UNL1       -0.4732
     15 C          61.3761   89.9863    9.9847 C.3     1  UNL1        0.2098
     16 C          61.0310   88.6387    9.4233 C.3     1  UNL1        0.0957
     17 S          62.0658   86.1530   10.7464 S.O2    1  UNL1        0.0094
     18 O          62.6454   85.7471   10.3793 O.2     1  UNL1       -0.1684
     19 O          61.2593   86.0501   12.0069 O.2     1  UNL1       -0.1684
     20 C          62.5831   84.9101   11.4079 C.ar    1  UNL1        0.1059
     21 C          63.6991   84.1327   10.7751 C.ar    1  UNL1        0.0192
     22 C          64.2165   82.8898   11.4366 C.ar    1  UNL1        0.0127
     23 C          63.6178   82.4244   12.7309 C.ar    1  UNL1        0.0578
     24 CL         64.1352   81.1815   13.3925 Cl      1  UNL1       -0.0822
     25 C          62.5019   83.2018   13.3636 C.ar    1  UNL1        0.0127
     26 C          61.9846   84.4446   12.7021 C.ar    1  UNL1        0.0192
     27 C          59.6513   89.7769    7.5390 C.3     1  UNL1        0.0550
     28 C          58.8506   89.6759    6.2747 C.3     1  UNL1        0.1534
     29 S          58.7058   90.8718    5.3809 S.O2    1  UNL1       -0.0085
     30 O          57.2179   90.8305    5.5667 O.2     1  UNL1       -0.1729
     31 O          60.1937   90.9131    5.1952 O.2     1  UNL1       -0.1729
     32 C          58.5610   92.0678    4.4872 C.3     1  UNL1        0.1678
     33 C          59.7014   92.4905    3.6094 C.3     1  UNL1        0.0942
     34 C          60.1700   94.1796    1.6917 C.3     1  UNL1        0.0859
     35 N          59.4342   92.9831    2.2180 N.3     1  UNL1       -0.2948
     36 H          59.6412   92.2091    1.5868 H       1  UNL1        0.1233
@<TRIPOS>BOND
     1    34    35    1
     2    35    33    1
     3    33    32    1
     4    32    29    1
     5    29    30    2
     6    29    31    2
     7    29    28    1
     8    28    27    1
     9     1    27    1
    10     1     2    1
    11     2     3    1
    12     3     4    1
    13     4     5    1
    14     5    17    1
    15    17    18    2
    16    17    19    2
    17    17    20    1
    18    20    21   ar
    19    21    22   ar
    20    22    23   ar
    21    23    24    1
    22    23    25   ar
    23    25    26   ar
    24     5     6    1
    25     6     7   ar
    26     7     8    1
    27     7     9   ar
    28     9    10   ar
    29    10    11   ar
    30    11    12    1
    31    11    13   ar
    32    13    14    1
    33    14    15    1
    34    16    15    1
    35    16     1    1
    36    16     5    1
    37    26    20   ar
    38    13     6   ar
    39    35    36    1
@<TRIPOS>MOLECULE
*****
 36 39 0 0 0
SMALL
GASTEIGER

@<TRIPOS>ATOM
      1 C          62.7566   89.1295   11.3283 C.3     1  UNL1        0.1225
      2 O          62.3391   88.6403    9.9732 O.3     1  UNL1       -0.3559
      3 C          62.3015   87.1686    9.6859 C.3     1  UNL1        0.1441
      4 C          62.6813   86.1860   10.7537 C.3     1  UNL1        0.0589
      5 C          63.0987   86.6753   12.1088 C.3     1  UNL1        0.1466
      6 C          63.4785   85.6927   13.1768 C.ar    1  UNL1        0.0618
      7 C          63.4409   84.2209   12.8895 C.ar    1  UNL1        0.1407
      8 F          63.0836   83.4035   11.6836 F       1  UNL1       -0.2043
      9 C          63.8207   83.2384   13.9573 C.ar    1  UNL1        0.0319
     10 C          64.2381   83.7276   15.3125 C.ar    1  UNL1        0.0351
     11 C          64.2758   85.1993   15.5998 C.ar    1  UNL1        0.1737
     12 F          64.6932   85.6886   16.9549 F       1  UNL1       -0.2010
     13 C          63.8960   86.1819   14.5319 C.ar    1  UNL1        0.1655
     14 O          63.9336   87.6537   14.8192 O.3     1  UNL1       -0.4732
     15 C          63.5538   88.6362   13.7513 C.3     1  UNL1        0.2098
     16 C          63.1363   88.1470   12.3961 C.3     1  UNL1        0.0957
     17 S          63.0610   85.2035   11.8216 S.O2    1  UNL1        0.0094
     18 O          63.7324   84.7854   11.9211 O.2     1  UNL1       -0.1684
     19 O          61.6442   84.9524   11.3980 O.2     1  UNL1       -0.1684
     20 C          63.0234   83.7317   11.5343 C.ar    1  UNL1        0.1059
     21 C          63.9407   83.1453   10.5024 C.ar    1  UNL1        0.0192
     22 C          63.9030   81.6736   10.2151 C.ar    1  UNL1        0.0127
     23 C          62.9481   80.7882   10.9597 C.ar    1  UNL1        0.0578
     24 CL         62.9105   79.3165   10.6725 Cl      1  UNL1       -0.0822
     25 C          62.0309   81.3747   11.9916 C.ar    1  UNL1        0.0127
     26 C          62.0686   82.8464   12.2789 C.ar    1  UNL1        0.0192
     27 C          62.7942   90.6013   11.6156 C.3     1  UNL1        0.0550
     28 C          63.7439   91.4878   10.8657 C.3     1  UNL1        0.1534
     29 S          64.7705   92.2877   11.6114 S.O2    1  UNL1       -0.0085
     30 O          65.4470   92.6267   10.3163 O.2     1  UNL1       -0.1729
     31 O          64.0940   91.9487   12.9065 O.2     1  UNL1       -0.1729
     32 C          65.7972   93.0877   12.3571 C.3     1  UNL1        0.1678
     33 C          66.3858   92.5531   13.6289 C.3     1  UNL1        0.0942
     34 C          66.7347   92.7381   16.1968 C.3     1  UNL1        0.0859
     35 N          66.0898   93.2293   14.9347 N.3     1  UNL1       -0.2948
     36 H          66.3593   94.2072   14.8276 H       1  UNL1        0.1233
@<TRIPOS>BOND
     1    34    35    1
     2    35    33    1
     3    33    32    1
     4    32    29    1
     5    29    30    2
     6    29    31    2
     7    29    28    1
     8    28    27    1
     9     1    27    1
    10     1     2    1
    11     2     3    1
    12     3     4    1
    13     4     5    1
    14     5    17    1
    15    17    18    2
    16    17    19    2
    17    17    20    1
    18    20    21   ar
    19    21    22   ar
    20    22    23   ar
    21    23    24    1
    22    23    25   ar
    23    25    26   ar
    24     5     6    1
    25     6     7   ar
    26     7     8    1
    27     7     9   ar
    28     9    10   ar
    29    10    11   ar
    30    11    12    1
    31    11    13   ar
    32    13    14    1
    33    14    15    1
    34    16    15    1
    35    16     1    1
    36    16     5    1
    37    26    20   ar
    38    13     6   ar
    39    35    36    1
@<TRIPOS>MOLECULE
*****
 36 39 0 0 0
SMALL
GASTEIGER

@<TRIPOS>ATOM
      1 C          61.1340   93.3133    2.1259 C.3     1  UNL1        0.1225
      2 O          62.6013   93.0404    2.2761 O.3     1  UNL1       -0.3559
      3 C          63.4995   93.0864    1.0756 C.3     1  UNL1        0.1441
      4 C          62.9304   93.4053   -0.2751 C.3     1  UNL1        0.0589
      5 C          61.4631   93.6782   -0.4253 C.3     1  UNL1        0.1466
      6 C          60.8939   93.9971   -1.7760 C.ar    1  UNL1        0.0618
      7 C          61.7921   94.0431   -2.9765 C.ar    1  UNL1        0.1407
      8 F          63.2618   93.8293   -3.1871 F       1  UNL1       -0.2043
      9 C          61.2230   94.3620   -4.3272 C.ar    1  UNL1        0.0319
     10 C          59.7557   94.6349   -4.4774 C.ar    1  UNL1        0.0351
     11 C          58.8575   94.5889   -3.2769 C.ar    1  UNL1        0.1737
     12 F          57.3902   94.8618   -3.4271 F       1  UNL1       -0.2010
     13 C          59.4267   94.2700   -1.9262 C.ar    1  UNL1        0.1655
     14 O          58.5285   94.2240   -0.7257 O.3     1  UNL1       -0.4732
     15 C          59.0976   93.9051    0.6250 C.3     1  UNL1        0.2098
     16 C          60.5649   93.6322    0.7752 C.3     1  UNL1        0.0957
     17 S          62.3613   93.7242   -1.6257 S.O2    1  UNL1        0.0094
     18 O          62.3466   93.1055   -2.1281 O.2     1  UNL1       -0.1684
     19 O          63.0724   95.0386   -1.4969 O.2     1  UNL1       -0.1684
     20 C          63.2594   93.7702   -2.8262 C.ar    1  UNL1        0.1059
     21 C          63.8616   95.0729   -3.2629 C.ar    1  UNL1        0.0192
     22 C          64.7597   95.1189   -4.4634 C.ar    1  UNL1        0.0127
     23 C          65.0558   93.8622   -5.2272 C.ar    1  UNL1        0.0578
     24 CL         65.9540   93.9083   -6.4277 Cl      1  UNL1       -0.0822
     25 C          64.4537   92.5597   -4.7905 C.ar    1  UNL1        0.0127
     26 C          63.5555   92.5137   -3.5900 C.ar    1  UNL1        0.0192
     27 C          60.2359   93.2673    3.3264 C.3     1  UNL1        0.0550
     28 C          59.1146   92.2728    3.3865 C.3     1  UNL1        0.1534
     29 S          58.8129   91.5593    4.6710 S.O2    1  UNL1       -0.0085
     30 O          60.2480   91.1347    4.7722 O.2     1  UNL1       -0.1729
     31 O          57.3778   91.9840    4.5698 O.2     1  UNL1       -0.1729
     32 C          58.5112   90.8459    5.9555 C.3     1  UNL1        0.1678
     33 C          59.3096   89.6383    6.3481 C.3     1  UNL1        0.0942
     34 C          59.9172   88.4243    8.5633 C.3     1  UNL1        0.0859
     35 N          60.0385   89.6148    7.6589 N.3     1  UNL1       -0.2948
     36 H          61.0302   89.7233    7.4464 H       1  UNL1        0.1233
@<TRIPOS>BOND
     1    34    35    1
     2    35    33    1
     3    33    32    1
     4    32    29    1
     5    29    30    2
     6    29    31    2
     7    29    28    1
     8    28    27    1
     9     1    27    1
    10     1     2    1
    11     2     3    1
    12     3     4    1
    13     4     5    1
    14     5    17    1
    15    17    18    2
    16    17    19    2
    17    17    20    1
    18    20    21   ar
    19    21    22   ar
    20    22    23   ar
    21    23    24    1
    22    23    25   ar
    23    25    26   ar
    24     5     6    1
    25     6     7   ar
    26     7     8    1
    27     7     9   ar
    28     9    10   ar
    29    10    11   ar
    30    11    12    1
    31    11    13   ar
    32    13    14    1
    33    14    15    1
    34    16    15    1
    35    16     1    1
    36    16     5    1
    37    26    20   ar
    38    13     6   ar
    39    35    36    1
@<TRIPOS>MOLECULE
*****
 36 39 0 0 0
SMALL
GASTEIGER

@<TRIPOS>ATOM
      1 C          62.5417   88.5050   10.9001 C.3     1  UNL1        0.1225
      2 O          62.0597   87.8993    9.6153 O.3     1  UNL1       -0.3559
      3 C          62.0204   86.4081    9.4575 C.3     1  UNL1        0.1441
      4 C          62.4630   85.5227   10.5844 C.3     1  UNL1        0.0589
      5 C          62.9449   86.1284   11.8692 C.3     1  UNL1        0.1466
      6 C          63.3875   85.2430   12.9963 C.ar    1  UNL1        0.0618
      7 C          63.3482   83.7519   12.8384 C.ar    1  UNL1        0.1407
      8 F          62.9369   82.8322   11.7271 F       1  UNL1       -0.2043
      9 C          63.7908   82.8664   13.9654 C.ar    1  UNL1        0.0319
     10 C          64.2728   83.4722   15.2503 C.ar    1  UNL1        0.0351
     11 C          64.3121   84.9633   15.4082 C.ar    1  UNL1        0.1737
     12 F          64.7940   85.5691   16.6930 F       1  UNL1       -0.2010
     13 C          63.8695   85.8488   14.2811 C.ar    1  UNL1        0.1655
     14 O          63.9088   87.3399   14.4389 O.3     1  UNL1       -0.4732
     15 C          63.4662   88.2253   13.3120 C.3     1  UNL1        0.2098
     16 C          62.9843   87.6196   12.0271 C.3     1  UNL1        0.0957
     17 S          62.9056   84.6373   11.7114 S.O2    1  UNL1        0.0094
     18 O          62.1937   84.2884   11.6278 O.2     1  UNL1       -0.1684
     19 O          64.3478   84.2285   11.7646 O.2     1  UNL1       -0.1684
     20 C          62.8662   83.1461   11.5535 C.ar    1  UNL1        0.1059
     21 C          62.0270   82.3159   12.4790 C.ar    1  UNL1        0.0192
     22 C          61.9877   80.8247   12.3212 C.ar    1  UNL1        0.0127
     23 C          62.7876   80.1638   11.2379 C.ar    1  UNL1        0.0578
     24 CL         62.7482   78.6727   11.0800 Cl      1  UNL1       -0.0822
     25 C          63.6267   80.9941   10.3125 C.ar    1  UNL1        0.0127
     26 C          63.6661   82.4852   10.4703 C.ar    1  UNL1        0.0192
     27 C          62.5810   89.9962   11.0579 C.3     1  UNL1        0.0550
     28 C          63.2965   90.6081   12.2256 C.3     1  UNL1        0.1534
     29 S          64.3411   91.6602   11.9976 S.O2    1  UNL1       -0.0085
     30 O          64.8125   91.4989   13.4124 O.2     1  UNL1       -0.1729
     31 O          63.8697   91.8216   10.5827 O.2     1  UNL1       -0.1729
     32 C          65.3856   92.7123   11.7695 C.3     1  UNL1        0.1678
     33 C          66.0428   92.8382   10.4271 C.3     1  UNL1        0.0942
     34 C          68.4478   92.2501    9.6397 C.3     1  UNL1        0.0859
     35 N          67.4999   93.1821   10.3346 N.3     1  UNL1       -0.2948
     36 H          67.5609   94.0782    9.8513 H       1  UNL1        0.1233
@<TRIPOS>BOND
     1    34    35    1
     2    35    33    1
     3    33    32    1
     4    32    29    1
     5    29    30    2
     6    29    31    2
     7    29    28    1
     8    28    27    1
     9     1    27    1
    10     1     2    1
    11     2     3    1
    12     3     4    1
    13     4     5    1
    14     5    17    1
    15    17    18    2
    16    17    19    2
    17    17    20    1
    18    20    21   ar
    19    21    22   ar
    20    22    23   ar
    21    23    24    1
    22    23    25   ar
    23    25    26   ar
    24     5     6    1
    25     6     7   ar
    26     7     8    1
    27     7     9   ar
    28     9    10   ar
    29    10    11   ar
    30    11    12    1
    31    11    13   ar
    32    13    14    1
    33    14    15    1
    34    16    15    1
    35    16     1    1
    36    16     5    1
    37    26    20   ar
    38    13     6   ar
    39    35    36    1
@<TRIPOS>MOLECULE
*****
 36 39 0 0 0
SMALL
GASTEIGER

@<TRIPOS>ATOM
      1 C          60.7822   92.7966    1.8788 C.3     1  UNL1        0.1225
      2 O          59.8343   92.1106    0.9402 O.3     1  UNL1       -0.3559
      3 C          60.0095   92.2570   -0.5423 C.3     1  UNL1        0.1441
      4 C          61.1325   93.0894   -1.0863 C.3     1  UNL1        0.0589
      5 C          62.0803   93.7754   -0.1477 C.3     1  UNL1        0.1466
      6 C          63.2034   94.6079   -0.6917 C.ar    1  UNL1        0.0618
      7 C          63.3786   94.7542   -2.1742 C.ar    1  UNL1        0.1407
      8 F          62.6402   94.2253   -3.3680 F       1  UNL1       -0.2043
      9 C          64.5016   95.5866   -2.7182 C.ar    1  UNL1        0.0319
     10 C          65.4495   96.2727   -1.7796 C.ar    1  UNL1        0.0351
     11 C          65.2744   96.1263   -0.2971 C.ar    1  UNL1        0.1737
     12 F          66.2222   96.8123    0.6414 F       1  UNL1       -0.2010
     13 C          64.1513   95.2938    0.2469 C.ar    1  UNL1        0.1655
     14 O          63.9761   95.1474    1.7294 O.3     1  UNL1       -0.4732
     15 C          62.8531   94.3151    2.2734 C.3     1  UNL1        0.2098
     16 C          61.9052   93.6290    1.3348 C.3     1  UNL1        0.0957
     17 S          62.2555   93.9218   -1.6303 S.O2    1  UNL1        0.0094
     18 O          62.7237   93.3970   -2.0055 O.2     1  UNL1       -0.1684
     19 O          61.4200   95.1180   -1.9781 O.2     1  UNL1       -0.1684
     20 C          62.4306   94.0682   -3.1128 C.ar    1  UNL1        0.1059
     21 C          61.7571   95.1941   -3.8400 C.ar    1  UNL1        0.0192
     22 C          61.9323   95.3405   -5.3226 C.ar    1  UNL1        0.0127
     23 C          62.7809   94.3610   -6.0779 C.ar    1  UNL1        0.0578
     24 CL         62.9561   94.5074   -7.5604 Cl      1  UNL1       -0.0822
     25 C          63.4544   93.2351   -5.3506 C.ar    1  UNL1        0.0127
     26 C          63.2792   93.0888   -3.8681 C.ar    1  UNL1        0.0192
     27 C          60.6071   92.6502    3.3613 C.3     1  UNL1        0.0550
     28 C          59.2346   92.7087    3.9638 C.3     1  UNL1        0.1534
     29 S          58.7534   91.5929    4.8432 S.O2    1  UNL1       -0.0085
     30 O          57.3705   92.1736    4.8232 O.2     1  UNL1       -0.1729
     31 O          60.1363   91.0122    4.8631 O.2     1  UNL1       -0.1729
     32 C          58.2722   90.4771    5.7226 C.3     1  UNL1        0.1678
     33 C          59.2157   89.8223    6.6874 C.3     1  UNL1        0.0942
     34 C          59.7936   87.7458    8.1380 C.3     1  UNL1        0.0859
     35 N          59.1325   88.3448    6.9321 N.3     1  UNL1       -0.2948
     36 H          58.1413   88.1119    6.9936 H       1  UNL1        0.1233
@<TRIPOS>BOND
     1    34    35    1
     2    35    33    1
     3    33    32    1
     4    32    29    1
     5    29    30    2
     6    29    31    2
     7    29    28    1
     8    28    27    1
     9     1    27    1
    10     1     2    1
    11     2     3    1
    12     3     4    1
    13     4     5    1
    14     5    17    1
    15    17    18    2
    16    17    19    2
    17    17    20    1
    18    20    21   ar
    19    21    22   ar
    20    22    23   ar
    21    23    24    1
    22    23    25   ar
    23    25    26   ar
    24     5     6    1
    25     6     7   ar
    26     7     8    1
    27     7     9   ar
    28     9    10   ar
    29    10    11   ar
    30    11    12    1
    31    11    13   ar
    32    13    14    1
    33    14    15    1
    34    16    15    1
    35    16     1    1
    36    16     5    1
    37    26    20   ar
    38    13     6   ar
    39    35    36    1
