@<TRIPOS>MOLECULE
*****
 30 32 0 0 0
SMALL
GASTEIGER

@<TRIPOS>ATOM
      1 C          65.4857   91.3930   13.7106 C.2     1  UNL1       -0.0222
      2 C          65.0344   91.7476   12.3248 C.2     1  UNL1       -0.0040
      3 C          65.8208   92.7300   11.5083 C.ar    1  UNL1       -0.0001
      4 C          66.7471   92.2412   10.4345 C.ar    1  UNL1        0.0031
      5 C          67.5335   93.2235    9.6181 C.ar    1  UNL1        0.0366
      6 C          67.3936   94.6946    9.8754 C.ar    1  UNL1        0.1337
      7 O          68.1800   95.6769    9.0589 O.3     1  UNL1       -0.5055
      8 C          66.4673   95.1834   10.9492 C.ar    1  UNL1        0.0366
      9 C          65.6809   94.2011   11.7656 C.ar    1  UNL1        0.0031
     10 H          68.7586   95.3716    8.3882 H       1  UNL1        0.2922
     11 C          63.7967   91.1200   11.7555 C.ar    1  UNL1       -0.0001
     12 C          62.9138   90.2775   12.6276 C.ar    1  UNL1        0.0031
     13 C          61.6760   89.6498   12.0582 C.ar    1  UNL1        0.0369
     14 C          61.3212   89.8648   10.6167 C.ar    1  UNL1        0.1386
     15 C          62.2041   90.7073    9.7446 C.ar    1  UNL1        0.0369
     16 C          63.4418   91.3349   10.3139 C.ar    1  UNL1        0.0031
     17 O          60.0836   89.2372   10.0474 O.3     1  UNL1       -0.4740
     18 C          60.1099   88.6412    8.6711 C.3     1  UNL1        0.2222
     19 C          59.7745   87.1924    8.4747 C.3     1  UNL1        0.1131
     20 N          58.4885   86.8041    7.8071 N.3     1  UNL1       -0.3180
     21 H          57.7028   87.0831    8.3946 H       1  UNL1        0.1190
     22 H          58.4684   85.7936    7.6697 H       1  UNL1        0.1190
     23 C          66.7234   92.0206   14.2799 C.ar    1  UNL1       -0.0040
     24 C          66.6142   93.0125   15.3999 C.ar    1  UNL1       -0.0003
     25 C          67.8519   93.6401   15.9692 C.ar    1  UNL1       -0.0000
     26 C          69.1988   93.2759   15.4186 C.ar    1  UNL1       -0.0000
     27 C          69.3080   92.2841   14.2986 C.ar    1  UNL1       -0.0000
     28 C          68.0703   91.6564   13.7293 C.ar    1  UNL1       -0.0003
     29 C          63.9989   90.8627   15.7742 C.3     1  UNL1        0.0050
     30 C          64.6993   90.4107   14.5271 C.3     1  UNL1        0.0264
@<TRIPOS>BOND
     1    29    30    1
     2    30     1    1
     3     1     2    2
     4     2     3    1
     5     3     4   ar
     6     4     5   ar
     7     5     6   ar
     8     6     7    1
     9     6     8   ar
    10     8     9   ar
    11     2    11    1
    12    11    12   ar
    13    12    13   ar
    14    13    14   ar
    15    14    17    1
    16    17    18    1
    17    18    19    1
    18    19    20    1
    19    14    15   ar
    20    15    16   ar
    21     1    23    1
    22    23    24   ar
    23    24    25   ar
    24    25    26   ar
    25    26    27   ar
    26    27    28   ar
    27     9     3   ar
    28    16    11   ar
    29    28    23   ar
    30     7    10    1
    31    20    21    1
    32    20    22    1
@<TRIPOS>MOLECULE
*****
 30 32 0 0 0
SMALL
GASTEIGER

@<TRIPOS>ATOM
      1 C          65.0477   91.7703   12.3125 C.2     1  UNL1       -0.0222
      2 C          65.4998   91.4439   13.7050 C.2     1  UNL1       -0.0040
      3 C          66.7181   92.1094   14.2734 C.ar    1  UNL1       -0.0001
      4 C          66.5735   93.1523   15.3416 C.ar    1  UNL1        0.0031
      5 C          67.7918   93.8177   15.9099 C.ar    1  UNL1        0.0366
      6 C          69.1547   93.4401   15.4100 C.ar    1  UNL1        0.1337
      7 O          70.3730   94.1055   15.9783 O.3     1  UNL1       -0.5055
      8 C          69.2993   92.3971   14.3417 C.ar    1  UNL1        0.0366
      9 C          68.0810   91.7317   13.7734 C.ar    1  UNL1        0.0031
     10 H          70.2827   94.7571   16.6457 H       1  UNL1        0.2922
     11 C          64.7336   90.4521   14.5292 C.ar    1  UNL1       -0.0001
     12 C          63.9187   90.9192   15.6987 C.ar    1  UNL1        0.0031
     13 C          63.1525   89.9273   16.5229 C.ar    1  UNL1        0.0369
     14 C          63.2012   88.4685   16.1775 C.ar    1  UNL1        0.1386
     15 C          64.0161   88.0014   15.0080 C.ar    1  UNL1        0.0369
     16 C          64.7823   88.9932   14.1838 C.ar    1  UNL1        0.0031
     17 O          62.4350   87.4767   17.0016 O.3     1  UNL1       -0.4740
     18 C          62.9398   86.0715   17.1450 C.3     1  UNL1        0.2222
     19 C          62.3102   84.9639   16.3531 C.3     1  UNL1        0.1131
     20 N          62.5742   84.8508   14.8808 N.3     1  UNL1       -0.3180
     21 H          62.1707   85.6550   14.4003 H       1  UNL1        0.1190
     22 H          62.1507   83.9941   14.5243 H       1  UNL1        0.1190
     23 C          65.8140   92.7622   11.4883 C.ar    1  UNL1       -0.0040
     24 C          65.6343   94.2323   11.7255 C.ar    1  UNL1       -0.0003
     25 C          66.4005   95.2242   10.9014 C.ar    1  UNL1       -0.0000
     26 C          67.3464   94.7458    9.8402 C.ar    1  UNL1       -0.0000
     27 C          67.5261   93.2756    9.6030 C.ar    1  UNL1       -0.0000
     28 C          66.7599   92.2838   10.4271 C.ar    1  UNL1       -0.0003
     29 C          63.3829   91.4242   10.3482 C.3     1  UNL1        0.0050
     30 C          63.8295   91.1049   11.7441 C.3     1  UNL1        0.0264
@<TRIPOS>BOND
     1    29    30    1
     2    30     1    1
     3     1     2    2
     4     2     3    1
     5     3     4   ar
     6     4     5   ar
     7     5     6   ar
     8     6     7    1
     9     6     8   ar
    10     8     9   ar
    11     2    11    1
    12    11    12   ar
    13    12    13   ar
    14    13    14   ar
    15    14    17    1
    16    17    18    1
    17    18    19    1
    18    19    20    1
    19    14    15   ar
    20    15    16   ar
    21     1    23    1
    22    23    24   ar
    23    24    25   ar
    24    25    26   ar
    25    26    27   ar
    26    27    28   ar
    27     9     3   ar
    28    16    11   ar
    29    28    23   ar
    30     7    10    1
    31    20    21    1
    32    20    22    1
@<TRIPOS>MOLECULE
*****
 30 32 0 0 0
SMALL
GASTEIGER

@<TRIPOS>ATOM
      1 C          63.6329   85.2269   13.0336 C.2     1  UNL1       -0.0222
      2 C          63.1652   86.4264   12.2638 C.2     1  UNL1       -0.0040
      3 C          62.3857   86.2460   10.9950 C.ar    1  UNL1       -0.0001
      4 C          63.0437   85.6425    9.7898 C.ar    1  UNL1        0.0031
      5 C          62.2641   85.4622    8.5211 C.ar    1  UNL1        0.0366
      6 C          60.8265   85.8855    8.4576 C.ar    1  UNL1        0.1337
      7 O          60.0469   85.7051    7.1888 O.3     1  UNL1       -0.5055
      8 C          60.1685   86.4890    9.6628 C.ar    1  UNL1        0.0366
      9 C          60.9480   86.6693   10.9315 C.ar    1  UNL1        0.0031
     10 H          60.4580   85.3281    6.4359 H       1  UNL1        0.2922
     11 C          63.4771   87.8061   12.7628 C.ar    1  UNL1       -0.0001
     12 C          63.0919   89.0039   11.9462 C.ar    1  UNL1        0.0031
     13 C          63.4038   90.3837   12.4452 C.ar    1  UNL1        0.0369
     14 C          64.1010   90.5656   13.7608 C.ar    1  UNL1        0.1386
     15 C          64.4863   89.3678   14.5774 C.ar    1  UNL1        0.0369
     16 C          64.1744   87.9881   14.0784 C.ar    1  UNL1        0.0031
     17 O          64.4129   91.9453   14.2597 O.3     1  UNL1       -0.4740
     18 C          65.7774   92.2572   14.7992 C.3     1  UNL1        0.2222
     19 C          65.9421   92.6612   16.2344 C.3     1  UNL1        0.1131
     20 N          64.7354   92.8313   17.1089 N.3     1  UNL1       -0.3180
     21 H          64.1801   93.6181   16.7728 H       1  UNL1        0.1190
     22 H          65.0330   93.0103   18.0679 H       1  UNL1        0.1190
     23 C          63.3209   83.8471   12.5346 C.ar    1  UNL1       -0.0040
     24 C          63.9889   83.3288   11.2956 C.ar    1  UNL1       -0.0003
     25 C          63.6770   81.9491   10.7966 C.ar    1  UNL1       -0.0000
     26 C          62.6971   81.0877   11.5366 C.ar    1  UNL1       -0.0000
     27 C          62.0291   81.6059   12.7756 C.ar    1  UNL1       -0.0000
     28 C          62.3410   82.9856   13.2746 C.ar    1  UNL1       -0.0003
     29 C          63.8285   84.9633   15.6109 C.3     1  UNL1        0.0050
     30 C          64.4124   85.4071   14.3024 C.3     1  UNL1        0.0264
@<TRIPOS>BOND
     1    29    30    1
     2    30     1    1
     3     1     2    2
     4     2     3    1
     5     3     4   ar
     6     4     5   ar
     7     5     6   ar
     8     6     7    1
     9     6     8   ar
    10     8     9   ar
    11     2    11    1
    12    11    12   ar
    13    12    13   ar
    14    13    14   ar
    15    14    17    1
    16    17    18    1
    17    18    19    1
    18    19    20    1
    19    14    15   ar
    20    15    16   ar
    21     1    23    1
    22    23    24   ar
    23    24    25   ar
    24    25    26   ar
    25    26    27   ar
    26    27    28   ar
    27     9     3   ar
    28    16    11   ar
    29    28    23   ar
    30     7    10    1
    31    20    21    1
    32    20    22    1
@<TRIPOS>MOLECULE
*****
 30 32 0 0 0
SMALL
GASTEIGER

@<TRIPOS>ATOM
      1 C          63.6475   85.2393   13.0160 C.2     1  UNL1       -0.0222
      2 C          63.1682   86.4408   12.2566 C.2     1  UNL1       -0.0040
      3 C          62.3734   86.2639   10.9968 C.ar    1  UNL1       -0.0001
      4 C          60.9412   86.7068   10.9452 C.ar    1  UNL1        0.0031
      5 C          60.1465   86.5299    9.6854 C.ar    1  UNL1        0.0366
      6 C          60.7839   85.9101    8.4773 C.ar    1  UNL1        0.1337
      7 O          59.9891   85.7332    7.2175 O.3     1  UNL1       -0.5055
      8 C          62.2161   85.4673    8.5289 C.ar    1  UNL1        0.0366
      9 C          63.0108   85.6442    9.7887 C.ar    1  UNL1        0.0031
     10 H          59.0945   86.0099    7.1852 H       1  UNL1        0.2922
     11 C          63.4838   87.8192   12.7570 C.ar    1  UNL1       -0.0001
     12 C          63.0950   89.0191   11.9452 C.ar    1  UNL1        0.0031
     13 C          63.4106   90.3976   12.4456 C.ar    1  UNL1        0.0369
     14 C          64.1149   90.5760   13.7579 C.ar    1  UNL1        0.1386
     15 C          64.5036   89.3761   14.5697 C.ar    1  UNL1        0.0369
     16 C          64.1881   87.9978   14.0693 C.ar    1  UNL1        0.0031
     17 O          64.4304   91.9544   14.2583 O.3     1  UNL1       -0.4740
     18 C          65.7964   92.2627   14.7959 C.3     1  UNL1        0.2222
     19 C          65.9632   92.6747   16.2286 C.3     1  UNL1        0.1131
     20 N          64.7608   92.8081   17.1154 N.3     1  UNL1       -0.3180
     21 H          64.1772   93.5761   16.7837 H       1  UNL1        0.1190
     22 H          65.0625   92.9985   18.0710 H       1  UNL1        0.1190
     23 C          63.3319   83.8608   12.5155 C.ar    1  UNL1       -0.0040
     24 C          62.3399   83.0061   13.2473 C.ar    1  UNL1       -0.0003
     25 C          62.0243   81.6278   12.7469 C.ar    1  UNL1       -0.0000
     26 C          62.7007   81.1041   11.5147 C.ar    1  UNL1       -0.0000
     27 C          63.6927   81.9588   10.7830 C.ar    1  UNL1       -0.0000
     28 C          64.0082   83.3372   11.2834 C.ar    1  UNL1       -0.0003
     29 C          63.8676   84.9835   15.5920 C.3     1  UNL1        0.0050
     30 C          64.4422   85.4161   14.2757 C.3     1  UNL1        0.0264
@<TRIPOS>BOND
     1    29    30    1
     2    30     1    1
     3     1     2    2
     4     2     3    1
     5     3     4   ar
     6     4     5   ar
     7     5     6   ar
     8     6     7    1
     9     6     8   ar
    10     8     9   ar
    11     2    11    1
    12    11    12   ar
    13    12    13   ar
    14    13    14   ar
    15    14    17    1
    16    17    18    1
    17    18    19    1
    18    19    20    1
    19    14    15   ar
    20    15    16   ar
    21     1    23    1
    22    23    24   ar
    23    24    25   ar
    24    25    26   ar
    25    26    27   ar
    26    27    28   ar
    27     9     3   ar
    28    16    11   ar
    29    28    23   ar
    30     7    10    1
    31    20    21    1
    32    20    22    1
@<TRIPOS>MOLECULE
*****
 30 32 0 0 0
SMALL
GASTEIGER

@<TRIPOS>ATOM
      1 C          65.7096   91.3374   13.7773 C.2     1  UNL1       -0.0222
      2 C          65.2584   91.6264   12.3763 C.2     1  UNL1       -0.0040
      3 C          65.9930   92.6361   11.5450 C.ar    1  UNL1       -0.0001
      4 C          65.7743   94.1015   11.7784 C.ar    1  UNL1        0.0031
      5 C          66.5089   95.1111   10.9471 C.ar    1  UNL1        0.0366
      6 C          67.4621   94.6552    9.8825 C.ar    1  UNL1        0.1337
      7 O          68.1968   95.6649    9.0512 O.3     1  UNL1       -0.5055
      8 C          67.6808   93.1898    9.6491 C.ar    1  UNL1        0.0366
      9 C          66.9462   92.1802   10.4804 C.ar    1  UNL1        0.0031
     10 H          68.0602   96.5804    9.1969 H       1  UNL1        0.2922
     11 C          64.0726   90.9058   11.8065 C.ar    1  UNL1       -0.0001
     12 C          63.6117   89.6173   12.4208 C.ar    1  UNL1        0.0031
     13 C          62.4258   88.8967   11.8510 C.ar    1  UNL1        0.0369
     14 C          61.7010   89.4646   10.6670 C.ar    1  UNL1        0.1386
     15 C          62.1619   90.7531   10.0527 C.ar    1  UNL1        0.0369
     16 C          63.3476   91.4737   10.6224 C.ar    1  UNL1        0.0031
     17 O          60.5152   88.7440   10.0973 O.3     1  UNL1       -0.4740
     18 C          59.3550   88.3933   10.9809 C.3     1  UNL1        0.2222
     19 C          59.0438   89.2381   12.1808 C.3     1  UNL1        0.1131
     20 N          58.3052   88.6455   13.3441 N.3     1  UNL1       -0.3180
     21 H          57.3574   88.4017   13.0565 H       1  UNL1        0.1190
     22 H          58.2658   89.3251   14.1037 H       1  UNL1        0.1190
     23 C          66.8954   92.0580   14.3470 C.ar    1  UNL1       -0.0040
     24 C          68.2738   91.7505   13.8417 C.ar    1  UNL1       -0.0003
     25 C          69.4596   92.4710   14.4113 C.ar    1  UNL1       -0.0000
     26 C          69.2670   93.4992   15.4864 C.ar    1  UNL1       -0.0000
     27 C          67.8886   93.8068   15.9917 C.ar    1  UNL1       -0.0000
     28 C          66.7028   93.0862   15.4221 C.ar    1  UNL1       -0.0003
     29 C          63.9931   90.7830   15.6471 C.3     1  UNL1        0.0050
     30 C          64.9750   90.3277   14.6086 C.3     1  UNL1        0.0264
@<TRIPOS>BOND
     1    29    30    1
     2    30     1    1
     3     1     2    2
     4     2     3    1
     5     3     4   ar
     6     4     5   ar
     7     5     6   ar
     8     6     7    1
     9     6     8   ar
    10     8     9   ar
    11     2    11    1
    12    11    12   ar
    13    12    13   ar
    14    13    14   ar
    15    14    17    1
    16    17    18    1
    17    18    19    1
    18    19    20    1
    19    14    15   ar
    20    15    16   ar
    21     1    23    1
    22    23    24   ar
    23    24    25   ar
    24    25    26   ar
    25    26    27   ar
    26    27    28   ar
    27     9     3   ar
    28    16    11   ar
    29    28    23   ar
    30     7    10    1
    31    20    21    1
    32    20    22    1
@<TRIPOS>MOLECULE
*****
 30 32 0 0 0
SMALL
GASTEIGER

@<TRIPOS>ATOM
      1 C          64.7304   91.2335   12.7481 C.2     1  UNL1       -0.0222
      2 C          63.7094   90.1455   12.9029 C.2     1  UNL1       -0.0040
      3 C          63.5742   89.4245   14.2114 C.ar    1  UNL1       -0.0001
      4 C          64.1458   88.0470   14.3713 C.ar    1  UNL1        0.0031
      5 C          64.0106   87.3261   15.6797 C.ar    1  UNL1        0.0366
      6 C          63.3038   87.9828   16.8283 C.ar    1  UNL1        0.1337
      7 O          63.1687   87.2619   18.1368 O.3     1  UNL1       -0.5055
      8 C          62.7323   89.3604   16.6684 C.ar    1  UNL1        0.0366
      9 C          62.8675   90.0813   15.3600 C.ar    1  UNL1        0.0031
     10 H          63.5257   86.4014   18.2366 H       1  UNL1        0.2922
     11 C          62.8237   89.7784   11.7494 C.ar    1  UNL1       -0.0001
     12 C          62.9754   88.4434   11.0824 C.ar    1  UNL1        0.0031
     13 C          62.0896   88.0764    9.9288 C.ar    1  UNL1        0.0369
     14 C          61.0522   89.0443    9.4422 C.ar    1  UNL1        0.1386
     15 C          60.9004   90.3793   10.1092 C.ar    1  UNL1        0.0369
     16 C          61.7862   90.7463   11.2627 C.ar    1  UNL1        0.0031
     17 O          60.1665   88.6772    8.2887 O.3     1  UNL1       -0.4740
     18 C          59.2167   87.5225    8.4101 C.3     1  UNL1        0.2222
     19 C          59.5310   86.2191    7.7375 C.3     1  UNL1        0.1131
     20 N          60.9576   85.8290    7.4873 N.3     1  UNL1       -0.3180
     21 H          61.3731   86.4730    6.8142 H       1  UNL1        0.1190
     22 H          60.9903   84.8800    7.1148 H       1  UNL1        0.1190
     23 C          65.6161   91.6005   13.9017 C.ar    1  UNL1       -0.0040
     24 C          65.0188   92.1698   15.1544 C.ar    1  UNL1       -0.0003
     25 C          65.9045   92.5368   16.3080 C.ar    1  UNL1       -0.0000
     26 C          67.3874   92.3346   16.2089 C.ar    1  UNL1       -0.0000
     27 C          67.9847   91.7653   14.9562 C.ar    1  UNL1       -0.0000
     28 C          67.0991   91.3983   13.8026 C.ar    1  UNL1       -0.0003
     29 C          65.5201   93.3032   11.3906 C.3     1  UNL1        0.0050
     30 C          64.8656   91.9544   11.4397 C.3     1  UNL1        0.0264
@<TRIPOS>BOND
     1    29    30    1
     2    30     1    1
     3     1     2    2
     4     2     3    1
     5     3     4   ar
     6     4     5   ar
     7     5     6   ar
     8     6     7    1
     9     6     8   ar
    10     8     9   ar
    11     2    11    1
    12    11    12   ar
    13    12    13   ar
    14    13    14   ar
    15    14    17    1
    16    17    18    1
    17    18    19    1
    18    19    20    1
    19    14    15   ar
    20    15    16   ar
    21     1    23    1
    22    23    24   ar
    23    24    25   ar
    24    25    26   ar
    25    26    27   ar
    26    27    28   ar
    27     9     3   ar
    28    16    11   ar
    29    28    23   ar
    30     7    10    1
    31    20    21    1
    32    20    22    1
@<TRIPOS>MOLECULE
*****
 30 32 0 0 0
SMALL
GASTEIGER

@<TRIPOS>ATOM
      1 C          62.5588   89.3515   11.5293 C.2     1  UNL1       -0.0222
      2 C          63.3294   88.8720   12.7236 C.2     1  UNL1       -0.0040
      3 C          63.4247   87.4035   13.0145 C.ar    1  UNL1       -0.0001
      4 C          62.7005   86.4183   12.1456 C.ar    1  UNL1        0.0031
      5 C          62.7959   84.9499   12.4366 C.ar    1  UNL1        0.0366
      6 C          63.6153   84.4667   13.5963 C.ar    1  UNL1        0.1337
      7 O          63.7106   82.9982   13.8872 O.3     1  UNL1       -0.5055
      8 C          64.3395   85.4520   14.4651 C.ar    1  UNL1        0.0366
      9 C          64.2441   86.9203   14.1742 C.ar    1  UNL1        0.0031
     10 H          63.2583   82.3828   13.3445 H       1  UNL1        0.2922
     11 C          64.0045   89.8609   13.6270 C.ar    1  UNL1       -0.0001
     12 C          65.1713   90.6595   13.1261 C.ar    1  UNL1        0.0031
     13 C          65.8465   91.6485   14.0295 C.ar    1  UNL1        0.0369
     14 C          65.3549   91.8387   15.4339 C.ar    1  UNL1        0.1386
     15 C          64.1882   91.0401   15.9348 C.ar    1  UNL1        0.0369
     16 C          63.5130   90.0512   15.0314 C.ar    1  UNL1        0.0031
     17 O          66.0301   92.8276   16.3373 O.3     1  UNL1       -0.4740
     18 C          67.3804   93.3726   15.9769 C.3     1  UNL1        0.2222
     19 C          68.5622   92.4526   15.8921 C.3     1  UNL1        0.1131
     20 N          69.2965   92.2927   14.5939 N.3     1  UNL1       -0.3180
     21 H          68.6845   91.8479   13.9097 H       1  UNL1        0.1190
     22 H          70.1222   91.7120   14.7397 H       1  UNL1        0.1190
     23 C          61.8836   88.3625   10.6259 C.ar    1  UNL1       -0.0040
     24 C          62.6894   87.5906    9.6234 C.ar    1  UNL1       -0.0003
     25 C          62.0143   86.6016    8.7201 C.ar    1  UNL1       -0.0000
     26 C          60.5334   86.3846    8.8191 C.ar    1  UNL1       -0.0000
     27 C          59.7276   87.1566    9.8215 C.ar    1  UNL1       -0.0000
     28 C          60.4028   88.1456   10.7249 C.ar    1  UNL1       -0.0003
     29 C          63.2242   91.4073   10.0867 C.3     1  UNL1        0.0050
     30 C          62.4635   90.8199   11.2384 C.3     1  UNL1        0.0264
@<TRIPOS>BOND
     1    29    30    1
     2    30     1    1
     3     1     2    2
     4     2     3    1
     5     3     4   ar
     6     4     5   ar
     7     5     6   ar
     8     6     7    1
     9     6     8   ar
    10     8     9   ar
    11     2    11    1
    12    11    12   ar
    13    12    13   ar
    14    13    14   ar
    15    14    17    1
    16    17    18    1
    17    18    19    1
    18    19    20    1
    19    14    15   ar
    20    15    16   ar
    21     1    23    1
    22    23    24   ar
    23    24    25   ar
    24    25    26   ar
    25    26    27   ar
    26    27    28   ar
    27     9     3   ar
    28    16    11   ar
    29    28    23   ar
    30     7    10    1
    31    20    21    1
    32    20    22    1
@<TRIPOS>MOLECULE
*****
 30 32 0 0 0
SMALL
GASTEIGER

@<TRIPOS>ATOM
      1 C          62.3486   87.4072   10.1244 C.2     1  UNL1       -0.0222
      2 C          62.8043   86.8201   11.4273 C.2     1  UNL1       -0.0040
      3 C          62.8738   85.3311   11.5955 C.ar    1  UNL1       -0.0001
      4 C          63.5564   84.4902   10.5577 C.ar    1  UNL1        0.0031
      5 C          63.6259   83.0013   10.7259 C.ar    1  UNL1        0.0366
      6 C          63.0128   82.3533   11.9318 C.ar    1  UNL1        0.1337
      7 O          63.0823   80.8644   12.0999 O.3     1  UNL1       -0.5055
      8 C          62.3302   83.1942   12.9695 C.ar    1  UNL1        0.0366
      9 C          62.2607   84.6831   12.8014 C.ar    1  UNL1        0.0031
     10 H          63.5087   80.3391   11.4517 H       1  UNL1        0.2922
     11 C          63.1906   87.7218   12.5620 C.ar    1  UNL1       -0.0001
     12 C          63.9553   87.1725   13.7297 C.ar    1  UNL1        0.0031
     13 C          64.3415   88.0743   14.8645 C.ar    1  UNL1        0.0369
     14 C          63.9631   89.5254   14.8315 C.ar    1  UNL1        0.1386
     15 C          63.1984   90.0747   13.6638 C.ar    1  UNL1        0.0369
     16 C          62.8121   89.1730   12.5291 C.ar    1  UNL1        0.0031
     17 O          64.3493   90.4271   15.9662 O.3     1  UNL1       -0.4740
     18 C          64.6240   91.8794   15.7101 C.3     1  UNL1        0.2222
     19 C          65.9730   92.3119   15.2169 C.3     1  UNL1        0.1131
     20 N          66.1349   93.6442   14.5470 N.3     1  UNL1       -0.3180
     21 H          65.6222   93.6458   13.6652 H       1  UNL1        0.1190
     22 H          67.1239   93.8156   14.3655 H       1  UNL1        0.1190
     23 C          61.9623   86.5054    8.9897 C.ar    1  UNL1       -0.0040
     24 C          60.5183   86.3465    8.6161 C.ar    1  UNL1       -0.0003
     25 C          60.1320   85.4448    7.4814 C.ar    1  UNL1       -0.0000
     26 C          61.1897   84.7019    6.7203 C.ar    1  UNL1       -0.0000
     27 C          62.6337   84.8608    7.0939 C.ar    1  UNL1       -0.0000
     28 C          63.0200   85.7625    8.2286 C.ar    1  UNL1       -0.0003
     29 C          61.0168   89.5367    9.4599 C.3     1  UNL1        0.0050
     30 C          62.2790   88.8961    9.9563 C.3     1  UNL1        0.0264
@<TRIPOS>BOND
     1    29    30    1
     2    30     1    1
     3     1     2    2
     4     2     3    1
     5     3     4   ar
     6     4     5   ar
     7     5     6   ar
     8     6     7    1
     9     6     8   ar
    10     8     9   ar
    11     2    11    1
    12    11    12   ar
    13    12    13   ar
    14    13    14   ar
    15    14    17    1
    16    17    18    1
    17    18    19    1
    18    19    20    1
    19    14    15   ar
    20    15    16   ar
    21     1    23    1
    22    23    24   ar
    23    24    25   ar
    24    25    26   ar
    25    26    27   ar
    26    27    28   ar
    27     9     3   ar
    28    16    11   ar
    29    28    23   ar
    30     7    10    1
    31    20    21    1
    32    20    22    1
@<TRIPOS>MOLECULE
*****
 30 32 0 0 0
SMALL
GASTEIGER

@<TRIPOS>ATOM
      1 C          63.4844   87.2865   12.9187 C.2     1  UNL1       -0.0222
      2 C          62.6661   86.2519   12.2047 C.2     1  UNL1       -0.0040
      3 C          61.8397   86.6396   11.0144 C.ar    1  UNL1       -0.0001
      4 C          62.2781   86.2432    9.6358 C.ar    1  UNL1        0.0031
      5 C          61.4517   86.6309    8.4455 C.ar    1  UNL1        0.0366
      6 C          60.1869   87.4150    8.6339 C.ar    1  UNL1        0.1337
      7 O          59.3605   87.8027    7.4436 O.3     1  UNL1       -0.5055
      8 C          59.7485   87.8114   10.0125 C.ar    1  UNL1        0.0366
      9 C          60.5749   87.4237   11.2028 C.ar    1  UNL1        0.0031
     10 H          59.6343   87.5551    6.5824 H       1  UNL1        0.2922
     11 C          62.6742   84.8295   12.6810 C.ar    1  UNL1       -0.0001
     12 C          62.9731   83.7181   11.7190 C.ar    1  UNL1        0.0031
     13 C          62.9811   82.2957   12.1953 C.ar    1  UNL1        0.0369
     14 C          62.6902   81.9848   13.6336 C.ar    1  UNL1        0.1386
     15 C          62.3913   83.0962   14.5956 C.ar    1  UNL1        0.0369
     16 C          62.3833   84.5185   14.1193 C.ar    1  UNL1        0.0031
     17 O          62.6983   80.5625   14.1099 O.3     1  UNL1       -0.4740
     18 C          61.4272   79.7660   14.1148 C.3     1  UNL1        0.2222
     19 C          60.1021   80.4683   14.1458 C.3     1  UNL1        0.1131
     20 N          58.8844   79.7505   14.6475 N.3     1  UNL1       -0.3180
     21 H          58.6565   78.9840   14.0142 H       1  UNL1        0.1190
     22 H          58.0998   80.4008   14.6902 H       1  UNL1        0.1190
     23 C          63.4764   88.7089   12.4424 C.ar    1  UNL1       -0.0040
     24 C          63.9448   89.8067   13.3508 C.ar    1  UNL1       -0.0003
     25 C          63.9368   91.2291   12.8746 C.ar    1  UNL1       -0.0000
     26 C          63.4603   91.5536   11.4898 C.ar    1  UNL1       -0.0000
     27 C          62.9918   90.4557   10.5813 C.ar    1  UNL1       -0.0000
     28 C          62.9999   89.0334   11.0576 C.ar    1  UNL1       -0.0003
     29 C          63.8685   87.2888   15.4882 C.3     1  UNL1        0.0050
     30 C          64.3108   86.8989   14.1090 C.3     1  UNL1        0.0264
@<TRIPOS>BOND
     1    29    30    1
     2    30     1    1
     3     1     2    2
     4     2     3    1
     5     3     4   ar
     6     4     5   ar
     7     5     6   ar
     8     6     7    1
     9     6     8   ar
    10     8     9   ar
    11     2    11    1
    12    11    12   ar
    13    12    13   ar
    14    13    14   ar
    15    14    17    1
    16    17    18    1
    17    18    19    1
    18    19    20    1
    19    14    15   ar
    20    15    16   ar
    21     1    23    1
    22    23    24   ar
    23    24    25   ar
    24    25    26   ar
    25    26    27   ar
    26    27    28   ar
    27     9     3   ar
    28    16    11   ar
    29    28    23   ar
    30     7    10    1
    31    20    21    1
    32    20    22    1
