@<TRIPOS>MOLECULE
*****
 31 35 0 0 0
SMALL
GASTEIGER

@<TRIPOS>ATOM
      1 O          63.3892   87.1852   12.9817 O.2     1  UNL1       -0.2699
      2 C          62.8143   86.3782   11.8556 C.2     1  UNL1        0.2505
      3 N          61.8508   87.0104   10.8954 N.am    1  UNL1       -0.2773
      4 C          61.2758   86.2034    9.7693 C.3     1  UNL1        0.0937
      5 C          60.3123   86.8356    8.8091 C.3     1  UNL1        0.0216
      6 C          59.9237   88.2749    8.9751 C.3     1  UNL1        0.0035
      7 C          60.4986   89.0819   10.1012 C.3     1  UNL1        0.0202
      8 C          61.4621   88.4497   11.0614 C.3     1  UNL1        0.0800
      9 C          63.2029   84.9389   11.6896 C.ar    1  UNL1        0.0729
     10 C          63.3841   84.3646   10.3158 C.ar    1  UNL1        0.0061
     11 C          63.7728   82.9254   10.1498 C.ar    1  UNL1        0.0002
     12 C          63.9802   82.0605   11.3576 C.ar    1  UNL1        0.0016
     13 C          63.7989   82.6348   12.7314 C.ar    1  UNL1        0.0211
     14 C          63.4103   84.0740   12.8974 C.ar    1  UNL1        0.1072
     15 N          63.2291   84.6483   14.2712 N.ar    1  UNL1       -0.1477
     16 N          61.9461   84.6901   15.0472 N.ar    1  UNL1       -0.1447
     17 C          62.2231   85.3492   16.3658 C.ar    1  UNL1        0.1446
     18 C          63.6773   85.7148   16.4048 C.ar    1  UNL1        0.1446
     19 N          64.2990   85.2816   15.1103 N.ar    1  UNL1       -0.1447
     20 C          62.0370   89.2567   12.1875 C.3     1  UNL1        0.0462
     21 C          63.0681   90.3091   11.9059 C.ar    1  UNL1       -0.0190
     22 C          63.1524   90.9309   10.5435 C.ar    1  UNL1       -0.0041
     23 C          64.1835   91.9833   10.2619 C.ar    1  UNL1        0.0013
     24 C          65.1302   92.4140   11.3427 C.ar    1  UNL1        0.0209
     25 C          65.0459   91.7922   12.7052 C.ar    1  UNL1        0.1026
     26 C          64.0148   90.7398   12.9868 C.ar    1  UNL1        0.0167
     27 N          65.9926   92.2228   13.7861 N.ar    1  UNL1       -0.1478
     28 N          67.4564   92.5024   13.6161 N.ar    1  UNL1       -0.1447
     29 C          68.0102   92.9019   14.9517 C.ar    1  UNL1        0.1446
     30 C          66.8886   92.8692   15.9471 C.ar    1  UNL1        0.1446
     31 N          65.6416   92.4495   15.2268 N.ar    1  UNL1       -0.1447
@<TRIPOS>BOND
     1     1     2    2
     2     2     9    1
     3     9    10   ar
     4    10    11   ar
     5    11    12   ar
     6    12    13   ar
     7    13    14   ar
     8    14    15    1
     9    15    16   ar
    10    16    17   ar
    11    17    18   ar
    12    18    19   ar
    13     2     3   am
    14     3     4    1
    15     4     5    1
    16     5     6    1
    17     6     7    1
    18     7     8    1
    19     8    20    1
    20    20    21    1
    21    21    22   ar
    22    22    23   ar
    23    23    24   ar
    24    24    25   ar
    25    25    27    1
    26    27    28   ar
    27    28    29   ar
    28    29    30   ar
    29    30    31   ar
    30    25    26   ar
    31    14     9   ar
    32    19    15   ar
    33     8     3    1
    34    26    21   ar
    35    31    27   ar
@<TRIPOS>MOLECULE
*****
 31 35 0 0 0
SMALL
GASTEIGER

@<TRIPOS>ATOM
      1 O          61.8278   85.6391   13.0595 O.2     1  UNL1       -0.2699
      2 C          62.3919   84.5980   12.1387 C.2     1  UNL1        0.2505
      3 N          62.6067   84.9162   10.6887 N.am    1  UNL1       -0.2773
      4 C          63.1708   83.8751    9.7679 C.3     1  UNL1        0.0937
      5 C          63.3856   84.1933    8.3178 C.3     1  UNL1        0.0216
      6 C          63.0363   85.5527    7.7886 C.3     1  UNL1        0.0035
      7 C          62.4723   86.5939    8.7094 C.3     1  UNL1        0.0202
      8 C          62.2575   86.2756   10.1594 C.3     1  UNL1        0.0800
      9 C          62.7411   83.2386   12.6680 C.ar    1  UNL1        0.0729
     10 C          62.5004   82.0211   11.8254 C.ar    1  UNL1        0.0061
     11 C          62.8496   80.6617   12.3546 C.ar    1  UNL1        0.0002
     12 C          63.4395   80.5198   13.7264 C.ar    1  UNL1        0.0016
     13 C          63.6802   81.7372   14.5690 C.ar    1  UNL1        0.0211
     14 C          63.3310   83.0966   14.0398 C.ar    1  UNL1        0.1072
     15 N          63.5716   84.3140   14.8824 N.ar    1  UNL1       -0.1477
     16 N          64.6640   85.3224   14.6830 N.ar    1  UNL1       -0.1447
     17 C          64.5297   86.3685   15.7496 C.ar    1  UNL1        0.1446
     18 C          63.3542   86.0065   16.6083 C.ar    1  UNL1        0.1446
     19 N          62.7621   84.7368   16.0723 N.ar    1  UNL1       -0.1447
     20 C          61.6934   87.3168   11.0802 C.3     1  UNL1        0.0462
     21 C          62.3017   88.6871   11.1251 C.ar    1  UNL1       -0.0190
     22 C          62.2376   89.5760    9.9187 C.ar    1  UNL1       -0.0041
     23 C          62.8459   90.9465    9.9636 C.ar    1  UNL1        0.0013
     24 C          63.5183   91.4279   11.2150 C.ar    1  UNL1        0.0209
     25 C          63.5824   90.5389   12.4215 C.ar    1  UNL1        0.1026
     26 C          62.9741   89.1686   12.3766 C.ar    1  UNL1        0.0167
     27 N          64.2548   91.0203   13.6730 N.ar    1  UNL1       -0.1478
     28 N          63.6164   91.1458   15.0245 N.ar    1  UNL1       -0.1447
     29 C          64.6507   91.6638   15.9795 C.ar    1  UNL1        0.1446
     30 C          65.9283   91.8586   15.2181 C.ar    1  UNL1        0.1446
     31 N          65.6837   91.4609   13.7925 N.ar    1  UNL1       -0.1447
@<TRIPOS>BOND
     1     1     2    2
     2     2     9    1
     3     9    10   ar
     4    10    11   ar
     5    11    12   ar
     6    12    13   ar
     7    13    14   ar
     8    14    15    1
     9    15    16   ar
    10    16    17   ar
    11    17    18   ar
    12    18    19   ar
    13     2     3   am
    14     3     4    1
    15     4     5    1
    16     5     6    1
    17     6     7    1
    18     7     8    1
    19     8    20    1
    20    20    21    1
    21    21    22   ar
    22    22    23   ar
    23    23    24   ar
    24    24    25   ar
    25    25    27    1
    26    27    28   ar
    27    28    29   ar
    28    29    30   ar
    29    30    31   ar
    30    25    26   ar
    31    14     9   ar
    32    19    15   ar
    33     8     3    1
    34    26    21   ar
    35    31    27   ar
@<TRIPOS>MOLECULE
*****
 31 35 0 0 0
SMALL
GASTEIGER

@<TRIPOS>ATOM
      1 O          63.6672   87.4637   13.7664 O.2     1  UNL1       -0.2699
      2 C          63.0864   87.0553   12.4451 C.2     1  UNL1        0.2505
      3 N          62.4689   88.0855   11.5466 N.am    1  UNL1       -0.2773
      4 C          61.8880   87.6770   10.2254 C.3     1  UNL1        0.0937
      5 C          61.2705   88.7074    9.3269 C.3     1  UNL1        0.0216
      6 C          61.2340   90.1460    9.7496 C.3     1  UNL1        0.0035
      7 C          61.8149   90.5545   11.0709 C.3     1  UNL1        0.0202
      8 C          62.4323   89.5243   11.9694 C.3     1  UNL1        0.0800
      9 C          63.1230   85.6165   12.0223 C.ar    1  UNL1        0.0729
     10 C          63.1573   85.2637   10.5648 C.ar    1  UNL1        0.0061
     11 C          63.1939   83.8250   10.1420 C.ar    1  UNL1        0.0002
     12 C          63.1961   82.7391   11.1768 C.ar    1  UNL1        0.0016
     13 C          63.1618   83.0919   12.6343 C.ar    1  UNL1        0.0211
     14 C          63.1252   84.5306   13.0571 C.ar    1  UNL1        0.1072
     15 N          63.0909   84.8833   14.5146 N.ar    1  UNL1       -0.1477
     16 N          61.8692   84.9216   15.3840 N.ar    1  UNL1       -0.1447
     17 C          62.2955   85.3217   16.7653 C.ar    1  UNL1        0.1446
     18 C          63.7808   85.5307   16.7497 C.ar    1  UNL1        0.1446
     19 N          64.2724   85.2597   15.3587 N.ar    1  UNL1       -0.1447
     20 C          63.0132   89.9327   13.2906 C.3     1  UNL1        0.0462
     21 C          64.3007   90.7008   13.3386 C.ar    1  UNL1       -0.0190
     22 C          65.2209   90.5496   14.5135 C.ar    1  UNL1       -0.0041
     23 C          66.5084   91.3177   14.5615 C.ar    1  UNL1        0.0013
     24 C          66.8757   92.2371   13.4346 C.ar    1  UNL1        0.0209
     25 C          65.9555   92.3883   12.2597 C.ar    1  UNL1        0.1026
     26 C          64.6680   91.6202   12.2117 C.ar    1  UNL1        0.0167
     27 N          66.3227   93.3077   11.1328 N.ar    1  UNL1       -0.1478
     28 N          67.4431   93.1023   10.1568 N.ar    1  UNL1       -0.1447
     29 C          67.4469   94.2615    9.2048 C.ar    1  UNL1        0.1446
     30 C          66.3290   95.1834    9.5926 C.ar    1  UNL1        0.1446
     31 N          65.6341   94.5939   10.7841 N.ar    1  UNL1       -0.1447
@<TRIPOS>BOND
     1     1     2    2
     2     2     9    1
     3     9    10   ar
     4    10    11   ar
     5    11    12   ar
     6    12    13   ar
     7    13    14   ar
     8    14    15    1
     9    15    16   ar
    10    16    17   ar
    11    17    18   ar
    12    18    19   ar
    13     2     3   am
    14     3     4    1
    15     4     5    1
    16     5     6    1
    17     6     7    1
    18     7     8    1
    19     8    20    1
    20    20    21    1
    21    21    22   ar
    22    22    23   ar
    23    23    24   ar
    24    24    25   ar
    25    25    27    1
    26    27    28   ar
    27    28    29   ar
    28    29    30   ar
    29    30    31   ar
    30    25    26   ar
    31    14     9   ar
    32    19    15   ar
    33     8     3    1
    34    26    21   ar
    35    31    27   ar
@<TRIPOS>MOLECULE
*****
 31 35 0 0 0
SMALL
GASTEIGER

@<TRIPOS>ATOM
      1 O          63.7267   88.3479   12.2487 O.2     1  UNL1       -0.2699
      2 C          63.5640   87.3437   13.3511 C.2     1  UNL1        0.2505
      3 N          63.4056   87.8060   14.7692 N.am    1  UNL1       -0.2773
      4 C          63.2430   86.8018   15.8716 C.3     1  UNL1        0.0937
      5 C          63.0846   87.2641   17.2898 C.3     1  UNL1        0.0216
      6 C          63.0888   88.7304   17.6056 C.3     1  UNL1        0.0035
      7 C          63.2514   89.7346   16.5032 C.3     1  UNL1        0.0202
      8 C          63.4098   89.2724   15.0851 C.3     1  UNL1        0.0800
      9 C          63.5599   85.8773   13.0352 C.ar    1  UNL1        0.0729
     10 C          64.3863   84.9312   13.8549 C.ar    1  UNL1        0.0061
     11 C          64.3821   83.4649   13.5392 C.ar    1  UNL1        0.0002
     12 C          63.5515   82.9446   12.4037 C.ar    1  UNL1        0.0016
     13 C          62.7251   83.8907   11.5840 C.ar    1  UNL1        0.0211
     14 C          62.7292   85.3571   11.8997 C.ar    1  UNL1        0.1072
     15 N          61.9028   86.3032   11.0800 N.ar    1  UNL1       -0.1477
     16 N          62.1209   86.6392    9.6345 N.ar    1  UNL1       -0.1447
     17 C          61.0661   87.6230    9.2230 C.ar    1  UNL1        0.1446
     18 C          60.1960   87.8951   10.4142 C.ar    1  UNL1        0.1446
     19 N          60.7131   87.0793   11.5619 N.ar    1  UNL1       -0.1447
     20 C          63.5724   90.2765   13.9827 C.3     1  UNL1        0.0462
     21 C          64.8596   91.0337   13.8417 C.ar    1  UNL1       -0.0190
     22 C          65.9257   90.9018   14.8886 C.ar    1  UNL1       -0.0041
     23 C          67.2130   91.6590   14.7477 C.ar    1  UNL1        0.0013
     24 C          67.4340   92.5480   13.5599 C.ar    1  UNL1        0.0209
     25 C          66.3677   92.6798   12.5130 C.ar    1  UNL1        0.1026
     26 C          65.0806   91.9227   12.6539 C.ar    1  UNL1        0.0167
     27 N          66.5888   93.5688   11.3252 N.ar    1  UNL1       -0.1478
     28 N          67.5754   93.3345   10.2199 N.ar    1  UNL1       -0.1447
     29 C          67.4584   94.4691    9.2458 C.ar    1  UNL1        0.1446
     30 C          66.3994   95.4047    9.7490 C.ar    1  UNL1        0.1446
     31 N          65.8619   94.8483   11.0342 N.ar    1  UNL1       -0.1447
@<TRIPOS>BOND
     1     1     2    2
     2     2     9    1
     3     9    10   ar
     4    10    11   ar
     5    11    12   ar
     6    12    13   ar
     7    13    14   ar
     8    14    15    1
     9    15    16   ar
    10    16    17   ar
    11    17    18   ar
    12    18    19   ar
    13     2     3   am
    14     3     4    1
    15     4     5    1
    16     5     6    1
    17     6     7    1
    18     7     8    1
    19     8    20    1
    20    20    21    1
    21    21    22   ar
    22    22    23   ar
    23    23    24   ar
    24    24    25   ar
    25    25    27    1
    26    27    28   ar
    27    28    29   ar
    28    29    30   ar
    29    30    31   ar
    30    25    26   ar
    31    14     9   ar
    32    19    15   ar
    33     8     3    1
    34    26    21   ar
    35    31    27   ar
@<TRIPOS>MOLECULE
*****
 31 35 0 0 0
SMALL
GASTEIGER

@<TRIPOS>ATOM
      1 O          65.0770   85.6027   13.2659 O.2     1  UNL1       -0.2699
      2 C          64.0402   84.8611   14.0566 C.2     1  UNL1        0.2505
      3 N          63.4350   85.4906   15.2762 N.am    1  UNL1       -0.2773
      4 C          62.3982   84.7491   16.0669 C.3     1  UNL1        0.0937
      5 C          61.7930   85.3786   17.2866 C.3     1  UNL1        0.0216
      6 C          62.2246   86.7496   17.7155 C.3     1  UNL1        0.0035
      7 C          63.2614   87.4912   16.9248 C.3     1  UNL1        0.0202
      8 C          63.8666   86.8617   15.7052 C.3     1  UNL1        0.0800
      9 C          63.6086   83.4901   13.6277 C.ar    1  UNL1        0.0729
     10 C          63.9534   82.2975   14.4697 C.ar    1  UNL1        0.0061
     11 C          63.5219   80.9265   14.0408 C.ar    1  UNL1        0.0002
     12 C          62.7455   80.7480   12.7699 C.ar    1  UNL1        0.0016
     13 C          62.4006   81.9405   11.9278 C.ar    1  UNL1        0.0211
     14 C          62.8322   83.3115   12.3567 C.ar    1  UNL1        0.1072
     15 N          62.4873   84.5041   11.5147 N.ar    1  UNL1       -0.1477
     16 N          62.9167   84.7358   10.0963 N.ar    1  UNL1       -0.1447
     17 C          62.3473   86.0492    9.6482 C.ar    1  UNL1        0.1446
     18 C          61.5659   86.6292   10.7898 C.ar    1  UNL1        0.1446
     19 N          61.6525   85.6743   11.9433 N.ar    1  UNL1       -0.1447
     20 C          64.9034   87.6032   14.9145 C.3     1  UNL1        0.0462
     21 C          64.5324   88.8591   14.1830 C.ar    1  UNL1       -0.0190
     22 C          65.2420   90.1441   14.4914 C.ar    1  UNL1       -0.0041
     23 C          64.8710   91.4000   13.7599 C.ar    1  UNL1        0.0013
     24 C          63.7904   91.3709   12.7200 C.ar    1  UNL1        0.0209
     25 C          63.0807   90.0858   12.4117 C.ar    1  UNL1        0.1026
     26 C          63.4517   88.8300   13.1431 C.ar    1  UNL1        0.0167
     27 N          62.0001   90.0567   11.3718 N.ar    1  UNL1       -0.1478
     28 N          62.2063   89.9927    9.8874 N.ar    1  UNL1       -0.1447
     29 C          60.8572   89.9829    9.2319 C.ar    1  UNL1        0.1446
     30 C          59.8170   90.0409   10.3112 C.ar    1  UNL1        0.1446
     31 N          60.5234   90.0865   11.6337 N.ar    1  UNL1       -0.1447
@<TRIPOS>BOND
     1     1     2    2
     2     2     9    1
     3     9    10   ar
     4    10    11   ar
     5    11    12   ar
     6    12    13   ar
     7    13    14   ar
     8    14    15    1
     9    15    16   ar
    10    16    17   ar
    11    17    18   ar
    12    18    19   ar
    13     2     3   am
    14     3     4    1
    15     4     5    1
    16     5     6    1
    17     6     7    1
    18     7     8    1
    19     8    20    1
    20    20    21    1
    21    21    22   ar
    22    22    23   ar
    23    23    24   ar
    24    24    25   ar
    25    25    27    1
    26    27    28   ar
    27    28    29   ar
    28    29    30   ar
    29    30    31   ar
    30    25    26   ar
    31    14     9   ar
    32    19    15   ar
    33     8     3    1
    34    26    21   ar
    35    31    27   ar
