@<TRIPOS>MOLECULE
*****
 33 37 0 0 0
SMALL
GASTEIGER

@<TRIPOS>ATOM
      1 C          60.5162   85.9770    8.0450 C.3     1  UNL1        0.0339
      2 C          61.0519   86.8235    9.1615 C.3     1  UNL1        0.1351
      3 C          61.8003   86.1852   10.2940 C.3     1  UNL1        0.1231
      4 N          62.3360   87.0317   11.4105 N.am    1  UNL1       -0.2724
      5 C          63.0844   86.3934   12.5430 C.2     1  UNL1        0.2507
      6 O          63.6201   87.2399   13.6594 O.2     1  UNL1       -0.2698
      7 C          62.1232   88.5164   11.3945 C.3     1  UNL1        0.1096
      8 C          61.3748   89.1547   10.2620 C.3     1  UNL1        0.1621
      9 O          60.8391   88.3082    9.1456 O.3     1  UNL1       -0.3527
     10 C          63.2972   84.9087   12.5589 C.ar    1  UNL1        0.0738
     11 C          63.5360   84.1714   11.2747 C.ar    1  UNL1        0.0175
     12 C          63.7487   82.6866   11.2907 C.ar    1  UNL1        0.0579
     13 CL         63.9876   81.9493   10.0064 Cl      1  UNL1       -0.0822
     14 C          63.7227   81.9392   12.5909 C.ar    1  UNL1        0.0130
     15 C          63.4838   82.6765   13.8752 C.ar    1  UNL1        0.0219
     16 C          63.2711   84.1612   13.8592 C.ar    1  UNL1        0.1073
     17 N          63.0323   84.8985   15.1435 N.ar    1  UNL1       -0.1477
     18 N          64.0819   85.5492   15.9949 N.ar    1  UNL1       -0.1447
     19 C          63.4002   86.1674   17.1795 C.ar    1  UNL1        0.1446
     20 C          61.9293   85.8988   17.0601 C.ar    1  UNL1        0.1446
     21 N          61.7019   85.1146   15.8018 N.ar    1  UNL1       -0.1447
     22 C          62.6589   89.3629   12.5110 C.3     1  UNL1        0.0488
     23 C          63.6421   90.4570   12.2174 C.ar    1  UNL1       -0.0189
     24 C          63.6151   91.1530   10.8889 C.ar    1  UNL1       -0.0041
     25 C          64.5984   92.2471   10.5953 C.ar    1  UNL1        0.0013
     26 C          65.6086   92.6451   11.6302 C.ar    1  UNL1        0.0209
     27 C          65.6356   91.9491   12.9586 C.ar    1  UNL1        0.1026
     28 C          64.6523   90.8550   13.2523 C.ar    1  UNL1        0.0167
     29 N          66.6459   92.3472   13.9935 N.ar    1  UNL1       -0.1478
     30 N          66.3434   92.8288   15.3815 N.ar    1  UNL1       -0.1447
     31 C          67.6465   93.1128   16.0679 C.ar    1  UNL1        0.1446
     32 C          68.7544   92.8068   15.1041 C.ar    1  UNL1        0.1446
     33 N          68.1360   92.3336   13.8221 N.ar    1  UNL1       -0.1447
@<TRIPOS>BOND
     1     2     1    1
     2     2     3    1
     3     3     4    1
     4     4     5   am
     5     5     6    2
     6     5    10    1
     7    10    11   ar
     8    11    12   ar
     9    12    13    1
    10    12    14   ar
    11    14    15   ar
    12    15    16   ar
    13    16    17    1
    14    17    18   ar
    15    18    19   ar
    16    19    20   ar
    17    20    21   ar
    18     4     7    1
    19     7    22    1
    20    22    23    1
    21    23    24   ar
    22    24    25   ar
    23    25    26   ar
    24    26    27   ar
    25    27    29    1
    26    29    30   ar
    27    30    31   ar
    28    31    32   ar
    29    32    33   ar
    30    27    28   ar
    31     7     8    1
    32     8     9    1
    33     9     2    1
    34    16    10   ar
    35    21    17   ar
    36    28    23   ar
    37    33    29   ar
@<TRIPOS>MOLECULE
*****
 33 37 0 0 0
SMALL
GASTEIGER

@<TRIPOS>ATOM
      1 C          64.0422   84.0645   13.8348 C.3     1  UNL1        0.0339
      2 C          64.0105   85.5641   13.8228 C.3     1  UNL1        0.1351
      3 C          63.3458   86.2911   12.6917 C.3     1  UNL1        0.1231
      4 N          63.3141   87.7908   12.6796 N.am    1  UNL1       -0.2724
      5 C          62.6493   88.5178   11.5484 C.2     1  UNL1        0.2507
      6 O          62.6177   90.0174   11.5363 O.2     1  UNL1       -0.2698
      7 C          63.9472   88.5633   13.7986 C.3     1  UNL1        0.1096
      8 C          64.6120   87.8363   14.9297 C.3     1  UNL1        0.1621
      9 O          64.6436   86.3367   14.9418 O.3     1  UNL1       -0.3527
     10 C          62.0162   87.7452   10.4294 C.ar    1  UNL1        0.0738
     11 C          62.8229   86.7407    9.6611 C.ar    1  UNL1        0.0175
     12 C          62.1897   85.9681    8.5421 C.ar    1  UNL1        0.0579
     13 CL         62.9964   84.9636    7.7738 Cl      1  UNL1       -0.0822
     14 C          60.7499   86.2001    8.1913 C.ar    1  UNL1        0.0130
     15 C          59.9432   87.2046    8.9595 C.ar    1  UNL1        0.0219
     16 C          60.5763   87.9772   10.0785 C.ar    1  UNL1        0.1073
     17 N          59.7696   88.9817   10.8467 N.ar    1  UNL1       -0.1477
     18 N          59.0183   88.7221   12.1188 N.ar    1  UNL1       -0.1447
     19 C          58.3569   90.0022   12.5360 C.ar    1  UNL1        0.1446
     20 C          58.6995   91.0529   11.5219 C.ar    1  UNL1        0.1446
     21 N          59.5726   90.4222   10.4778 N.ar    1  UNL1       -0.1447
     22 C          63.9156   90.0629   13.7865 C.3     1  UNL1        0.0488
     23 C          65.1976   90.8397   13.7329 C.ar    1  UNL1       -0.0189
     24 C          66.1214   90.8450   14.9147 C.ar    1  UNL1       -0.0041
     25 C          67.4035   91.6218   14.8611 C.ar    1  UNL1        0.0013
     26 C          67.7618   92.3934   13.6257 C.ar    1  UNL1        0.0209
     27 C          66.8381   92.3882   12.4439 C.ar    1  UNL1        0.1026
     28 C          65.5560   91.6113   12.4975 C.ar    1  UNL1        0.0167
     29 N          67.1964   93.1598   11.2085 N.ar    1  UNL1       -0.1478
     30 N          66.9120   94.6118   10.9624 N.ar    1  UNL1       -0.1447
     31 C          67.4419   94.9643    9.6040 C.ar    1  UNL1        0.1446
     32 C          68.0538   93.7300    9.0106 C.ar    1  UNL1        0.1446
     33 N          67.9020   92.6148   10.0022 N.ar    1  UNL1       -0.1447
@<TRIPOS>BOND
     1     2     1    1
     2     2     3    1
     3     3     4    1
     4     4     5   am
     5     5     6    2
     6     5    10    1
     7    10    11   ar
     8    11    12   ar
     9    12    13    1
    10    12    14   ar
    11    14    15   ar
    12    15    16   ar
    13    16    17    1
    14    17    18   ar
    15    18    19   ar
    16    19    20   ar
    17    20    21   ar
    18     4     7    1
    19     7    22    1
    20    22    23    1
    21    23    24   ar
    22    24    25   ar
    23    25    26   ar
    24    26    27   ar
    25    27    29    1
    26    29    30   ar
    27    30    31   ar
    28    31    32   ar
    29    32    33   ar
    30    27    28   ar
    31     7     8    1
    32     8     9    1
    33     9     2    1
    34    16    10   ar
    35    21    17   ar
    36    28    23   ar
    37    33    29   ar
@<TRIPOS>MOLECULE
*****
 33 37 0 0 0
SMALL
GASTEIGER

@<TRIPOS>ATOM
      1 C          62.8001   86.4921   18.1120 C.3     1  UNL1        0.0339
      2 C          63.0365   87.5809   17.1078 C.3     1  UNL1        0.1351
      3 C          63.1050   87.2511   15.6461 C.3     1  UNL1        0.1231
      4 N          63.3414   88.3400   14.6418 N.am    1  UNL1       -0.2724
      5 C          63.4098   88.0101   13.1801 C.2     1  UNL1        0.2507
      6 O          63.6462   89.0990   12.1758 O.2     1  UNL1       -0.2698
      7 C          63.5093   89.7586   15.0992 C.3     1  UNL1        0.1096
      8 C          63.4409   90.0884   16.5609 C.3     1  UNL1        0.1621
      9 O          63.2045   88.9996   17.5651 O.3     1  UNL1       -0.3527
     10 C          63.2418   86.5915   12.7227 C.ar    1  UNL1        0.0738
     11 C          64.0017   85.4900   13.4004 C.ar    1  UNL1        0.0175
     12 C          63.8337   84.0713   12.9430 C.ar    1  UNL1        0.0579
     13 CL         64.5935   82.9698   13.6207 Cl      1  UNL1       -0.0822
     14 C          62.9059   83.7542   11.8079 C.ar    1  UNL1        0.0130
     15 C          62.1460   84.8557   11.1301 C.ar    1  UNL1        0.0219
     16 C          62.3140   86.2743   11.5875 C.ar    1  UNL1        0.1073
     17 N          61.5541   87.3758   10.9098 N.ar    1  UNL1       -0.1477
     18 N          61.8348   87.9301    9.5445 N.ar    1  UNL1       -0.1447
     19 C          60.8343   89.0133    9.2693 C.ar    1  UNL1        0.1446
     20 C          59.9353   89.1285   10.4645 C.ar    1  UNL1        0.1446
     21 N          60.3801   88.1165   11.4784 N.ar    1  UNL1       -0.1447
     22 C          63.7457   90.8474   14.0949 C.3     1  UNL1        0.0488
     23 C          65.1322   91.3749   13.8730 C.ar    1  UNL1       -0.0189
     24 C          66.1927   91.1571   14.9113 C.ar    1  UNL1       -0.0041
     25 C          67.5792   91.6846   14.6893 C.ar    1  UNL1        0.0013
     26 C          67.9054   92.4298   13.4291 C.ar    1  UNL1        0.0209
     27 C          66.8450   92.6476   12.3908 C.ar    1  UNL1        0.1026
     28 C          65.4584   92.1201   12.6127 C.ar    1  UNL1        0.0167
     29 N          67.1711   93.3929   11.1305 N.ar    1  UNL1       -0.1478
     30 N          67.8788   92.8322    9.9327 N.ar    1  UNL1       -0.1447
     31 C          67.9919   93.9224    8.9087 C.ar    1  UNL1        0.1446
     32 C          67.3540   95.1569    9.4736 C.ar    1  UNL1        0.1446
     33 N          66.8467   94.8296   10.8468 N.ar    1  UNL1       -0.1447
@<TRIPOS>BOND
     1     2     1    1
     2     2     3    1
     3     3     4    1
     4     4     5   am
     5     5     6    2
     6     5    10    1
     7    10    11   ar
     8    11    12   ar
     9    12    13    1
    10    12    14   ar
    11    14    15   ar
    12    15    16   ar
    13    16    17    1
    14    17    18   ar
    15    18    19   ar
    16    19    20   ar
    17    20    21   ar
    18     4     7    1
    19     7    22    1
    20    22    23    1
    21    23    24   ar
    22    24    25   ar
    23    25    26   ar
    24    26    27   ar
    25    27    29    1
    26    29    30   ar
    27    30    31   ar
    28    31    32   ar
    29    32    33   ar
    30    27    28   ar
    31     7     8    1
    32     8     9    1
    33     9     2    1
    34    16    10   ar
    35    21    17   ar
    36    28    23   ar
    37    33    29   ar
@<TRIPOS>MOLECULE
*****
 33 37 0 0 0
SMALL
GASTEIGER

@<TRIPOS>ATOM
      1 C          61.3059   87.0987    8.4495 C.3     1  UNL1        0.0339
      2 C          61.7850   87.8029    9.6843 C.3     1  UNL1        0.1351
      3 C          62.3455   87.0120   10.8289 C.3     1  UNL1        0.1231
      4 N          62.8245   87.7161   12.0637 N.am    1  UNL1       -0.2724
      5 C          63.3850   86.9251   13.2084 C.2     1  UNL1        0.2507
      6 O          63.8640   87.6293   14.4432 O.2     1  UNL1       -0.2698
      7 C          62.7430   89.2112   12.1538 C.3     1  UNL1        0.1096
      8 C          62.1826   90.0021   11.0092 C.3     1  UNL1        0.1621
      9 O          61.7035   89.2979    9.7744 O.3     1  UNL1       -0.3527
     10 C          63.4664   85.4301   13.1183 C.ar    1  UNL1        0.0738
     11 C          63.7702   84.7734   11.8043 C.ar    1  UNL1        0.0175
     12 C          63.8516   83.2782   11.7142 C.ar    1  UNL1        0.0579
     13 CL         64.1554   82.6215   10.4003 Cl      1  UNL1       -0.0822
     14 C          63.6293   82.4399   12.9381 C.ar    1  UNL1        0.0130
     15 C          63.3256   83.0967   14.2520 C.ar    1  UNL1        0.0219
     16 C          63.2441   84.5917   14.3421 C.ar    1  UNL1        0.1073
     17 N          62.9404   85.2484   15.6561 N.ar    1  UNL1       -0.1477
     18 N          63.9503   85.7378   16.6515 N.ar    1  UNL1       -0.1447
     19 C          63.2074   86.3229   17.8159 C.ar    1  UNL1        0.1446
     20 C          61.7385   86.1951   17.5402 C.ar    1  UNL1        0.1446
     21 N          61.5735   85.5311   16.2054 N.ar    1  UNL1       -0.1447
     22 C          63.2221   89.9153   13.3886 C.3     1  UNL1        0.0488
     23 C          64.4972   90.7045   13.3550 C.ar    1  UNL1       -0.0189
     24 C          65.4898   90.5739   14.4720 C.ar    1  UNL1       -0.0041
     25 C          66.7649   91.3631   14.4383 C.ar    1  UNL1        0.0013
     26 C          67.0475   92.2830   13.2877 C.ar    1  UNL1        0.0209
     27 C          66.0549   92.4137   12.1708 C.ar    1  UNL1        0.1026
     28 C          64.7797   91.6245   12.2044 C.ar    1  UNL1        0.0167
     29 N          66.3374   93.3337   11.0202 N.ar    1  UNL1       -0.1478
     30 N          65.5545   94.5614   10.6601 N.ar    1  UNL1       -0.1447
     31 C          66.1857   95.1739    9.4450 C.ar    1  UNL1        0.1446
     32 C          67.3587   94.3247    9.0541 C.ar    1  UNL1        0.1446
     33 N          67.4525   93.1874   10.0276 N.ar    1  UNL1       -0.1447
@<TRIPOS>BOND
     1     2     1    1
     2     2     3    1
     3     3     4    1
     4     4     5   am
     5     5     6    2
     6     5    10    1
     7    10    11   ar
     8    11    12   ar
     9    12    13    1
    10    12    14   ar
    11    14    15   ar
    12    15    16   ar
    13    16    17    1
    14    17    18   ar
    15    18    19   ar
    16    19    20   ar
    17    20    21   ar
    18     4     7    1
    19     7    22    1
    20    22    23    1
    21    23    24   ar
    22    24    25   ar
    23    25    26   ar
    24    26    27   ar
    25    27    29    1
    26    29    30   ar
    27    30    31   ar
    28    31    32   ar
    29    32    33   ar
    30    27    28   ar
    31     7     8    1
    32     8     9    1
    33     9     2    1
    34    16    10   ar
    35    21    17   ar
    36    28    23   ar
    37    33    29   ar
@<TRIPOS>MOLECULE
*****
 33 37 0 0 0
SMALL
GASTEIGER

@<TRIPOS>ATOM
      1 C          62.7657   83.7889   13.8307 C.3     1  UNL1        0.0339
      2 C          63.1457   85.2288   13.6508 C.3     1  UNL1        0.1351
      3 C          62.7237   85.9671   12.4153 C.3     1  UNL1        0.1231
      4 N          63.1036   87.4070   12.2354 N.am    1  UNL1       -0.2724
      5 C          62.6816   88.1454   10.9998 C.2     1  UNL1        0.2507
      6 O          63.0615   89.5853   10.8199 O.2     1  UNL1       -0.2698
      7 C          63.9056   88.1086   13.2912 C.3     1  UNL1        0.1096
      8 C          64.3275   87.3702   14.5268 C.3     1  UNL1        0.1621
      9 O          63.9476   85.9303   14.7066 O.3     1  UNL1       -0.3527
     10 C          61.8797   87.4438    9.9440 C.ar    1  UNL1        0.0738
     11 C          62.5405   86.4466    9.0391 C.ar    1  UNL1        0.0175
     12 C          61.7385   85.7450    7.9833 C.ar    1  UNL1        0.0579
     13 CL         62.3994   84.7478    7.0784 Cl      1  UNL1       -0.0822
     14 C          60.2757   86.0407    7.8324 C.ar    1  UNL1        0.0130
     15 C          59.6149   87.0379    8.7373 C.ar    1  UNL1        0.0219
     16 C          60.4168   87.7395    9.7931 C.ar    1  UNL1        0.1073
     17 N          59.7560   88.7367   10.6979 N.ar    1  UNL1       -0.1477
     18 N          59.6584   90.2145   10.4596 N.ar    1  UNL1       -0.1447
     19 C          58.9188   90.8224   11.6144 C.ar    1  UNL1        0.1446
     20 C          58.5592   89.7203   12.5664 C.ar    1  UNL1        0.1446
     21 N          59.0766   88.4313   11.9999 N.ar    1  UNL1       -0.1447
     22 C          64.2855   89.5485   13.1114 C.3     1  UNL1        0.0488
     23 C          64.5388   90.4128   14.3109 C.ar    1  UNL1       -0.0189
     24 C          63.4762   90.5733   15.3575 C.ar    1  UNL1       -0.0041
     25 C          63.7295   91.4376   16.5570 C.ar    1  UNL1        0.0013
     26 C          65.0453   92.1413   16.7099 C.ar    1  UNL1        0.0209
     27 C          66.1078   91.9808   15.6634 C.ar    1  UNL1        0.1026
     28 C          65.8546   91.1165   14.4638 C.ar    1  UNL1        0.0167
     29 N          67.4236   92.6846   15.8164 N.ar    1  UNL1       -0.1478
     30 N          67.6535   94.1615   15.6901 N.ar    1  UNL1       -0.1447
     31 C          69.1125   94.4248   15.9182 C.ar    1  UNL1        0.1446
     32 C          69.7843   93.1105   16.1854 C.ar    1  UNL1        0.1446
     33 N          68.7406   92.0351   16.1225 N.ar    1  UNL1       -0.1447
@<TRIPOS>BOND
     1     2     1    1
     2     2     3    1
     3     3     4    1
     4     4     5   am
     5     5     6    2
     6     5    10    1
     7    10    11   ar
     8    11    12   ar
     9    12    13    1
    10    12    14   ar
    11    14    15   ar
    12    15    16   ar
    13    16    17    1
    14    17    18   ar
    15    18    19   ar
    16    19    20   ar
    17    20    21   ar
    18     4     7    1
    19     7    22    1
    20    22    23    1
    21    23    24   ar
    22    24    25   ar
    23    25    26   ar
    24    26    27   ar
    25    27    29    1
    26    29    30   ar
    27    30    31   ar
    28    31    32   ar
    29    32    33   ar
    30    27    28   ar
    31     7     8    1
    32     8     9    1
    33     9     2    1
    34    16    10   ar
    35    21    17   ar
    36    28    23   ar
    37    33    29   ar
