@<TRIPOS>MOLECULE
*****
 25 28 0 0 0
SMALL
GASTEIGER

@<TRIPOS>ATOM
      1 C          62.6601   89.6461   10.9545 C.ar    1  UNL1        0.0013
      2 C          63.1495   90.8488   10.2036 C.ar    1  UNL1        0.0015
      3 C          64.0835   91.8176   10.8661 C.ar    1  UNL1        0.0173
      4 C          64.5281   91.5837   12.2795 C.ar    1  UNL1        0.0622
      5 C          64.0386   90.3810   13.0304 C.ar    1  UNL1       -0.0056
      6 C          63.1047   89.4122   12.3679 C.ar    1  UNL1       -0.0028
      7 C          64.4832   90.1471   14.4438 C.3     1  UNL1        0.0358
      8 C          65.4172   91.1160   15.1063 C.3     1  UNL1        0.0709
      9 C          65.9067   92.3188   14.3554 C.ar    1  UNL1        0.1471
     10 N          66.8257   93.4389   14.7436 N.ar    1  UNL1       -0.1333
     11 N          66.9490   94.3651   13.5702 N.ar    1  UNL1       -0.1333
     12 C          66.1064   93.8174   12.4567 C.ar    1  UNL1        0.1472
     13 C          65.9375   94.4272   11.0968 C.3     1  UNL1        0.0742
     14 N          65.4621   92.5527   12.9420 N.ar    1  UNL1       -0.2810
     15 C          61.3365   86.6323    8.7373 C.ar    1  UNL1        0.0212
     16 C          59.8580   86.7393    8.9670 C.ar    1  UNL1        0.0968
     17 N          59.3136   87.8153    9.8591 N.ar    1  UNL1       -0.2426
     18 C          60.2476   88.7842   10.5216 C.ar    1  UNL1        0.0988
     19 C          61.7260   88.6772   10.2920 C.ar    1  UNL1        0.0189
     20 C          62.2705   87.6012    9.3998 C.ar    1  UNL1        0.0011
     21 C          61.8810   85.5564    7.8452 C.3     1  UNL1        0.1131
     22 C          60.5903   85.5367    7.0812 C.3     1  UNL1        0.0343
     23 C          63.1717   85.5760    8.6092 C.3     1  UNL1        0.0343
     24 C          61.7464   84.1699    5.6522 C.3     1  UNL1        0.1743
     25 O          62.4255   84.4805    6.9531 O.3     1  UNL1       -0.3518
@<TRIPOS>BOND
     1    24    25    1
     2    25    21    1
     3    21    22    1
     4    21    23    1
     5    21    15    1
     6    15    16   ar
     7    16    17   ar
     8    17    18   ar
     9    18    19   ar
    10    19     1    1
    11     1     2   ar
    12     2     3   ar
    13     3     4   ar
    14     4     5   ar
    15     5     6   ar
    16     5     7    1
    17     7     8    1
    18     8     9    1
    19     9    10   ar
    20    10    11   ar
    21    11    12   ar
    22    12    13    1
    23    12    14   ar
    24    19    20   ar
    25    20    15   ar
    26     6     1   ar
    27    14     9   ar
    28    14     4    1
@<TRIPOS>MOLECULE
*****
 25 28 0 0 0
SMALL
GASTEIGER

@<TRIPOS>ATOM
      1 C          64.0670   88.3325   14.3985 C.ar    1  UNL1        0.0013
      2 C          63.5883   88.2250   12.9811 C.ar    1  UNL1        0.0015
      3 C          63.3334   86.8765   12.3757 C.ar    1  UNL1        0.0173
      4 C          63.5572   85.6354   13.1879 C.ar    1  UNL1        0.0622
      5 C          64.0359   85.7428   14.6054 C.ar    1  UNL1       -0.0056
      6 C          64.2908   87.0914   15.2107 C.ar    1  UNL1       -0.0028
      7 C          64.2597   84.5017   15.4175 C.3     1  UNL1        0.0358
      8 C          64.0048   83.1532   14.8122 C.3     1  UNL1        0.0709
      9 C          63.5260   83.0457   13.3946 C.ar    1  UNL1        0.1471
     10 N          63.1923   81.8628   12.5349 N.ar    1  UNL1       -0.1333
     11 N          62.7623   82.3728   11.1914 N.ar    1  UNL1       -0.1333
     12 C          62.8302   83.8709   11.2208 C.ar    1  UNL1        0.1472
     13 C          62.4865   84.7915   10.0875 C.3     1  UNL1        0.0742
     14 N          63.3022   84.2868   12.5825 N.ar    1  UNL1       -0.2810
     15 C          65.8188   91.7903   15.2499 C.ar    1  UNL1        0.0212
     16 C          64.8319   92.3781   16.2147 C.ar    1  UNL1        0.0968
     17 N          63.5901   91.6174   16.5740 N.ar    1  UNL1       -0.2426
     18 C          63.3351   90.2688   15.9686 C.ar    1  UNL1        0.0988
     19 C          64.3220   89.6810   15.0039 C.ar    1  UNL1        0.0189
     20 C          65.5638   90.4418   14.6446 C.ar    1  UNL1        0.0011
     21 C          67.0606   92.5510   14.8906 C.3     1  UNL1        0.1131
     22 C          67.3880   92.7042   16.3464 C.3     1  UNL1        0.0343
     23 C          66.7331   92.3979   13.4348 C.3     1  UNL1        0.0343
     24 C          69.2335   93.7803   15.6099 C.3     1  UNL1        0.1743
     25 O          68.3024   93.3118   14.5312 O.3     1  UNL1       -0.3518
@<TRIPOS>BOND
     1    24    25    1
     2    25    21    1
     3    21    22    1
     4    21    23    1
     5    21    15    1
     6    15    16   ar
     7    16    17   ar
     8    17    18   ar
     9    18    19   ar
    10    19     1    1
    11     1     2   ar
    12     2     3   ar
    13     3     4   ar
    14     4     5   ar
    15     5     6   ar
    16     5     7    1
    17     7     8    1
    18     8     9    1
    19     9    10   ar
    20    10    11   ar
    21    11    12   ar
    22    12    13    1
    23    12    14   ar
    24    19    20   ar
    25    20    15   ar
    26     6     1   ar
    27    14     9   ar
    28    14     4    1
@<TRIPOS>MOLECULE
*****
 25 28 0 0 0
SMALL
GASTEIGER

@<TRIPOS>ATOM
      1 C          63.1344   89.8042   12.8309 C.ar    1  UNL1        0.0013
      2 C          62.3528   90.5683   11.8037 C.ar    1  UNL1        0.0015
      3 C          61.6789   89.8395   10.6791 C.ar    1  UNL1        0.0173
      4 C          61.7867   88.3465   10.5818 C.ar    1  UNL1        0.0622
      5 C          62.5683   87.5824   11.6091 C.ar    1  UNL1       -0.0056
      6 C          63.2421   88.3113   12.7336 C.ar    1  UNL1       -0.0028
      7 C          62.6760   86.0895   11.5117 C.3     1  UNL1        0.0358
      8 C          62.0021   85.3606   10.3872 C.3     1  UNL1        0.0709
      9 C          61.2204   86.1247    9.3599 C.ar    1  UNL1        0.1471
     10 N          60.4545   85.6827    8.1483 N.ar    1  UNL1       -0.1333
     11 N          59.8735   86.9025    7.4969 N.ar    1  UNL1       -0.1333
     12 C          60.2802   88.0983    8.3058 C.ar    1  UNL1        0.1472
     13 C          59.9181   89.5245    8.0144 C.3     1  UNL1        0.0742
     14 N          61.1127   87.6176    9.4572 N.ar    1  UNL1       -0.2810
     15 C          65.8402   91.8654   14.8755 C.ar    1  UNL1        0.0212
     16 C          65.1562   91.9908   16.2046 C.ar    1  UNL1        0.0968
     17 N          63.7983   91.3873   16.4091 N.ar    1  UNL1       -0.2426
     18 C          63.1243   90.6585   15.2845 C.ar    1  UNL1        0.0988
     19 C          63.8083   90.5331   13.9555 C.ar    1  UNL1        0.0189
     20 C          65.1663   91.1366   13.7510 C.ar    1  UNL1        0.0011
     21 C          67.1982   92.4689   14.6709 C.3     1  UNL1        0.1131
     22 C          67.2432   92.8583   16.1188 C.3     1  UNL1        0.0343
     23 C          67.1532   92.0794   13.2231 C.3     1  UNL1        0.0343
     24 C          69.3398   93.5721   15.6437 C.3     1  UNL1        0.1743
     25 O          68.5561   93.0723   14.4664 O.3     1  UNL1       -0.3518
@<TRIPOS>BOND
     1    24    25    1
     2    25    21    1
     3    21    22    1
     4    21    23    1
     5    21    15    1
     6    15    16   ar
     7    16    17   ar
     8    17    18   ar
     9    18    19   ar
    10    19     1    1
    11     1     2   ar
    12     2     3   ar
    13     3     4   ar
    14     4     5   ar
    15     5     6   ar
    16     5     7    1
    17     7     8    1
    18     8     9    1
    19     9    10   ar
    20    10    11   ar
    21    11    12   ar
    22    12    13    1
    23    12    14   ar
    24    19    20   ar
    25    20    15   ar
    26     6     1   ar
    27    14     9   ar
    28    14     4    1
@<TRIPOS>MOLECULE
*****
 25 28 0 0 0
SMALL
GASTEIGER

@<TRIPOS>ATOM
      1 C          63.0014   89.6084   11.2762 C.ar    1  UNL1        0.0013
      2 C          63.4480   90.8056   10.4904 C.ar    1  UNL1        0.0015
      3 C          64.3354   91.8329   11.1284 C.ar    1  UNL1        0.0173
      4 C          64.7763   91.6631   12.5520 C.ar    1  UNL1        0.0622
      5 C          64.3298   90.4659   13.3377 C.ar    1  UNL1       -0.0056
      6 C          63.4423   89.4386   12.6998 C.ar    1  UNL1       -0.0028
      7 C          64.7707   90.2961   14.7614 C.3     1  UNL1        0.0358
      8 C          65.6581   91.3234   15.3993 C.3     1  UNL1        0.0709
      9 C          66.1047   92.5206   14.6136 C.ar    1  UNL1        0.1471
     10 N          66.9735   93.6896   14.9724 N.ar    1  UNL1       -0.1333
     11 N          67.0695   94.5819   13.7705 N.ar    1  UNL1       -0.1333
     12 C          66.2601   93.9644   12.6689 C.ar    1  UNL1        0.1472
     13 C          66.0787   94.5228   11.2886 C.3     1  UNL1        0.0742
     14 N          65.6638   92.6905   13.1900 N.ar    1  UNL1       -0.2810
     15 C          60.3414   87.9367    8.8513 C.ar    1  UNL1        0.0212
     16 C          60.3389   86.5263    9.3624 C.ar    1  UNL1        0.0968
     17 N          61.2240   86.1434   10.5113 N.ar    1  UNL1       -0.2426
     18 C          62.1115   87.1708   11.1492 C.ar    1  UNL1        0.0988
     19 C          62.1139   88.5810   10.6382 C.ar    1  UNL1        0.0189
     20 C          61.2289   88.9640    9.4893 C.ar    1  UNL1        0.0011
     21 C          59.4564   88.3196    7.7024 C.3     1  UNL1        0.1131
     22 C          59.0014   86.8957    7.5783 C.3     1  UNL1        0.0343
     23 C          59.9114   89.7435    7.8265 C.3     1  UNL1        0.0343
     24 C          58.8012   89.9951    5.8281 C.3     1  UNL1        0.1743
     25 O          58.5714   88.7025    6.5534 O.3     1  UNL1       -0.3518
@<TRIPOS>BOND
     1    24    25    1
     2    25    21    1
     3    21    22    1
     4    21    23    1
     5    21    15    1
     6    15    16   ar
     7    16    17   ar
     8    17    18   ar
     9    18    19   ar
    10    19     1    1
    11     1     2   ar
    12     2     3   ar
    13     3     4   ar
    14     4     5   ar
    15     5     6   ar
    16     5     7    1
    17     7     8    1
    18     8     9    1
    19     9    10   ar
    20    10    11   ar
    21    11    12   ar
    22    12    13    1
    23    12    14   ar
    24    19    20   ar
    25    20    15   ar
    26     6     1   ar
    27    14     9   ar
    28    14     4    1
@<TRIPOS>MOLECULE
*****
 25 28 0 0 0
SMALL
GASTEIGER

@<TRIPOS>ATOM
      1 C          64.0930   88.3581   14.3468 C.ar    1  UNL1        0.0013
      2 C          64.4730   87.1197   15.1030 C.ar    1  UNL1        0.0015
      3 C          64.1901   85.7676   14.5184 C.ar    1  UNL1        0.0173
      4 C          63.5272   85.6540   13.1777 C.ar    1  UNL1        0.0622
      5 C          63.1472   86.8924   12.4215 C.ar    1  UNL1       -0.0056
      6 C          63.4301   88.2445   13.0061 C.ar    1  UNL1       -0.0028
      7 C          62.4842   86.7788   11.0808 C.3     1  UNL1        0.0358
      8 C          62.2013   85.4267   10.4962 C.3     1  UNL1        0.0709
      9 C          62.5814   84.1882   11.2523 C.ar    1  UNL1        0.1471
     10 N          62.4298   82.7306   10.9323 N.ar    1  UNL1       -0.1333
     11 N          62.9991   81.9434   12.0751 N.ar    1  UNL1       -0.1333
     12 C          63.5025   82.9144   13.1016 C.ar    1  UNL1        0.1472
     13 C          64.1503   82.5604   14.4073 C.3     1  UNL1        0.0742
     14 N          63.2443   84.3018   12.5931 N.ar    1  UNL1       -0.2810
     15 C          65.9514   91.7577   15.2065 C.ar    1  UNL1        0.0212
     16 C          64.9418   92.4146   16.1005 C.ar    1  UNL1        0.0968
     17 N          63.6492   91.7193   16.4099 N.ar    1  UNL1       -0.2426
     18 C          63.3663   90.3671   15.8254 C.ar    1  UNL1        0.0988
     19 C          64.3759   89.7103   14.9314 C.ar    1  UNL1        0.0189
     20 C          65.6685   90.4056   14.6220 C.ar    1  UNL1        0.0011
     21 C          67.2440   92.4531   14.8971 C.3     1  UNL1        0.1131
     22 C          67.1049   92.0695   13.4537 C.3     1  UNL1        0.0343
     23 C          67.3832   92.8367   16.3405 C.3     1  UNL1        0.0343
     24 C          69.2679   93.8880   15.6685 C.3     1  UNL1        0.1743
     25 O          68.5366   93.1484   14.5877 O.3     1  UNL1       -0.3518
@<TRIPOS>BOND
     1    24    25    1
     2    25    21    1
     3    21    22    1
     4    21    23    1
     5    21    15    1
     6    15    16   ar
     7    16    17   ar
     8    17    18   ar
     9    18    19   ar
    10    19     1    1
    11     1     2   ar
    12     2     3   ar
    13     3     4   ar
    14     4     5   ar
    15     5     6   ar
    16     5     7    1
    17     7     8    1
    18     8     9    1
    19     9    10   ar
    20    10    11   ar
    21    11    12   ar
    22    12    13    1
    23    12    14   ar
    24    19    20   ar
    25    20    15   ar
    26     6     1   ar
    27    14     9   ar
    28    14     4    1
@<TRIPOS>MOLECULE
*****
 25 28 0 0 0
SMALL
GASTEIGER

@<TRIPOS>ATOM
      1 C          63.5401   89.8666   13.2395 C.ar    1  UNL1        0.0013
      2 C          63.7721   88.3857   13.1832 C.ar    1  UNL1        0.0015
      3 C          63.1023   87.5614   12.1241 C.ar    1  UNL1        0.0173
      4 C          62.2005   88.2179   11.1213 C.ar    1  UNL1        0.0622
      5 C          61.9685   89.6988   11.1775 C.ar    1  UNL1       -0.0056
      6 C          62.6383   90.5231   12.2366 C.ar    1  UNL1       -0.0028
      7 C          61.0667   90.3553   10.1747 C.3     1  UNL1        0.0358
      8 C          60.3969   89.5310    9.1155 C.3     1  UNL1        0.0709
      9 C          60.6288   88.0501    9.0592 C.ar    1  UNL1        0.1471
     10 N          60.1098   86.9871    8.1369 N.ar    1  UNL1       -0.1333
     11 N          60.6907   85.6738    8.5697 N.ar    1  UNL1       -0.1333
     12 C          61.5689   85.9249    9.7595 C.ar    1  UNL1        0.1472
     13 C          62.3484   84.8892   10.5143 C.3     1  UNL1        0.0742
     14 N          61.5306   87.3935   10.0621 N.ar    1  UNL1       -0.2810
     15 C          66.2744   92.0239   15.1421 C.ar    1  UNL1        0.0212
     16 C          65.5497   92.3398   16.4169 C.ar    1  UNL1        0.0968
     17 N          64.1551   91.8313   16.6325 N.ar    1  UNL1       -0.2426
     18 C          63.4852   91.0069   15.5733 C.ar    1  UNL1        0.0988
     19 C          64.2100   90.6910   14.2986 C.ar    1  UNL1        0.0189
     20 C          65.6046   91.1995   14.0830 C.ar    1  UNL1        0.0011
     21 C          67.6690   92.5324   14.9264 C.3     1  UNL1        0.1131
     22 C          67.6427   93.1786   16.2798 C.3     1  UNL1        0.0343
     23 C          67.6954   91.8862   13.5730 C.3     1  UNL1        0.0343
     24 C          69.7258   93.8827   15.7610 C.3     1  UNL1        0.1743
     25 O          69.0636   93.0409   14.7108 O.3     1  UNL1       -0.3518
@<TRIPOS>BOND
     1    24    25    1
     2    25    21    1
     3    21    22    1
     4    21    23    1
     5    21    15    1
     6    15    16   ar
     7    16    17   ar
     8    17    18   ar
     9    18    19   ar
    10    19     1    1
    11     1     2   ar
    12     2     3   ar
    13     3     4   ar
    14     4     5   ar
    15     5     6   ar
    16     5     7    1
    17     7     8    1
    18     8     9    1
    19     9    10   ar
    20    10    11   ar
    21    11    12   ar
    22    12    13    1
    23    12    14   ar
    24    19    20   ar
    25    20    15   ar
    26     6     1   ar
    27    14     9   ar
    28    14     4    1
@<TRIPOS>MOLECULE
*****
 25 28 0 0 0
SMALL
GASTEIGER

@<TRIPOS>ATOM
      1 C          63.9959   88.1232   14.3215 C.ar    1  UNL1        0.0013
      2 C          64.3901   86.9713   15.1976 C.ar    1  UNL1        0.0015
      3 C          64.1806   85.5634   14.7246 C.ar    1  UNL1        0.0173
      4 C          63.5768   85.3074   13.3756 C.ar    1  UNL1        0.0622
      5 C          63.1826   86.4593   12.4995 C.ar    1  UNL1       -0.0056
      6 C          63.3922   87.8672   12.9725 C.ar    1  UNL1       -0.0028
      7 C          62.5789   86.2033   11.1504 C.3     1  UNL1        0.0358
      8 C          62.3693   84.7954   10.6775 C.3     1  UNL1        0.0709
      9 C          62.7635   83.6433   11.5536 C.ar    1  UNL1        0.1471
     10 N          62.6784   82.1586   11.3581 N.ar    1  UNL1       -0.1333
     11 N          63.2294   81.4970   12.5862 N.ar    1  UNL1       -0.1333
     12 C          63.6552   82.5728   13.5408 C.ar    1  UNL1        0.1472
     13 C          64.2623   82.3595   14.8958 C.3     1  UNL1        0.0742
     14 N          63.3673   83.8993   12.9026 N.ar    1  UNL1       -0.2810
     15 C          65.2558   91.8840   14.4608 C.ar    1  UNL1        0.0212
     16 C          64.6246   92.3473   15.7403 C.ar    1  UNL1        0.0968
     17 N          63.7839   91.4025   16.5469 N.ar    1  UNL1       -0.2426
     18 C          63.5743   89.9945   16.0739 C.ar    1  UNL1        0.0988
     19 C          64.2055   89.5313   14.7945 C.ar    1  UNL1        0.0189
     20 C          65.0463   90.4760   13.9879 C.ar    1  UNL1        0.0011
     21 C          66.0966   92.8288   13.6543 C.3     1  UNL1        0.1131
     22 C          66.8516   93.2135   14.8920 C.3     1  UNL1        0.0343
     23 C          65.3416   92.4441   12.4166 C.3     1  UNL1        0.0343
     24 C          66.4171   94.3210   11.5518 C.3     1  UNL1        0.1743
     25 O          66.9374   93.7736   12.8477 O.3     1  UNL1       -0.3518
@<TRIPOS>BOND
     1    24    25    1
     2    25    21    1
     3    21    22    1
     4    21    23    1
     5    21    15    1
     6    15    16   ar
     7    16    17   ar
     8    17    18   ar
     9    18    19   ar
    10    19     1    1
    11     1     2   ar
    12     2     3   ar
    13     3     4   ar
    14     4     5   ar
    15     5     6   ar
    16     5     7    1
    17     7     8    1
    18     8     9    1
    19     9    10   ar
    20    10    11   ar
    21    11    12   ar
    22    12    13    1
    23    12    14   ar
    24    19    20   ar
    25    20    15   ar
    26     6     1   ar
    27    14     9   ar
    28    14     4    1
@<TRIPOS>MOLECULE
*****
 25 28 0 0 0
SMALL
GASTEIGER

@<TRIPOS>ATOM
      1 C          64.2130   89.2284   14.6447 C.ar    1  UNL1        0.0013
      2 C          63.7538   89.4218   13.2299 C.ar    1  UNL1        0.0015
      3 C          64.1750   90.6413   12.4648 C.ar    1  UNL1        0.0173
      4 C          65.0553   91.6674   13.1145 C.ar    1  UNL1        0.0622
      5 C          65.5145   91.4740   14.5293 C.ar    1  UNL1       -0.0056
      6 C          65.0933   90.2545   15.2944 C.ar    1  UNL1       -0.0028
      7 C          66.3948   92.5001   15.1790 C.3     1  UNL1        0.0358
      8 C          66.8160   93.7196   14.4139 C.3     1  UNL1        0.0709
      9 C          66.3568   93.9130   12.9990 C.ar    1  UNL1        0.1471
     10 N          66.6080   95.0059   12.0028 N.ar    1  UNL1       -0.1333
     11 N          65.8829   94.6552   10.7374 N.ar    1  UNL1       -0.1333
     12 C          65.1836   93.3457   10.9515 C.ar    1  UNL1        0.1472
     13 C          64.3396   92.6218    9.9447 C.3     1  UNL1        0.0742
     14 N          65.4765   92.8869   12.3493 N.ar    1  UNL1       -0.2810
     15 C          63.5734   85.4258   15.5836 C.ar    1  UNL1        0.0212
     16 C          62.9494   85.5698   16.9402 C.ar    1  UNL1        0.0968
     17 N          62.7467   86.9334   17.5315 N.ar    1  UNL1       -0.2426
     18 C          63.1679   88.1529   16.7663 C.ar    1  UNL1        0.0988
     19 C          63.7918   88.0089   15.4099 C.ar    1  UNL1        0.0189
     20 C          63.9945   86.6453   14.8185 C.ar    1  UNL1        0.0011
     21 C          63.7761   84.0623   14.9923 C.3     1  UNL1        0.1131
     22 C          65.1297   84.4782   14.4975 C.3     1  UNL1        0.0343
     23 C          62.4225   83.6464   15.4871 C.3     1  UNL1        0.0343
     24 C          62.7932   81.8546   14.0385 C.3     1  UNL1        0.1743
     25 O          63.9789   82.6988   14.4010 O.3     1  UNL1       -0.3518
@<TRIPOS>BOND
     1    24    25    1
     2    25    21    1
     3    21    22    1
     4    21    23    1
     5    21    15    1
     6    15    16   ar
     7    16    17   ar
     8    17    18   ar
     9    18    19   ar
    10    19     1    1
    11     1     2   ar
    12     2     3   ar
    13     3     4   ar
    14     4     5   ar
    15     5     6   ar
    16     5     7    1
    17     7     8    1
    18     8     9    1
    19     9    10   ar
    20    10    11   ar
    21    11    12   ar
    22    12    13    1
    23    12    14   ar
    24    19    20   ar
    25    20    15   ar
    26     6     1   ar
    27    14     9   ar
    28    14     4    1
@<TRIPOS>MOLECULE
*****
 25 28 0 0 0
SMALL
GASTEIGER

@<TRIPOS>ATOM
      1 C          62.5353   86.4112   11.5015 C.ar    1  UNL1        0.0013
      2 C          62.6483   85.3681   10.4296 C.ar    1  UNL1        0.0015
      3 C          62.7063   83.9156   10.7998 C.ar    1  UNL1        0.0173
      4 C          62.6514   83.5064   12.2419 C.ar    1  UNL1        0.0622
      5 C          62.5384   84.5496   13.3137 C.ar    1  UNL1       -0.0056
      6 C          62.4804   86.0020   12.9436 C.ar    1  UNL1       -0.0028
      7 C          62.4834   84.1403   14.7558 C.3     1  UNL1        0.0358
      8 C          62.5415   82.6879   15.1259 C.3     1  UNL1        0.0709
      9 C          62.6544   81.6446   14.0540 C.ar    1  UNL1        0.1471
     10 N          62.7314   80.1478   14.1143 N.ar    1  UNL1       -0.1333
     11 N          62.8338   79.6321   12.7096 N.ar    1  UNL1       -0.1333
     12 C          62.8203   80.8100   11.7811 C.ar    1  UNL1        0.1472
     13 C          62.9031   80.7540   10.2844 C.3     1  UNL1        0.0742
     14 N          62.7094   82.0539   12.6120 N.ar    1  UNL1       -0.2810
     15 C          63.2139   90.3212   11.5414 C.ar    1  UNL1        0.0212
     16 C          62.3613   90.7687   10.3911 C.ar    1  UNL1        0.0968
     17 N          61.5667   89.7636    9.6111 N.ar    1  UNL1       -0.2426
     18 C          61.6247   88.3111    9.9812 C.ar    1  UNL1        0.0988
     19 C          62.4773   87.8637   11.1314 C.ar    1  UNL1        0.0189
     20 C          63.2719   88.8688   11.9114 C.ar    1  UNL1        0.0011
     21 C          64.0085   91.3263   12.3214 C.3     1  UNL1        0.1131
     22 C          63.5691   90.6799   13.6017 C.3     1  UNL1        0.0343
     23 C          64.4478   91.9726   11.0411 C.3     1  UNL1        0.0343
     24 C          65.9166   93.0856   12.4375 C.3     1  UNL1        0.1743
     25 O          64.8030   92.3313   13.1015 O.3     1  UNL1       -0.3518
@<TRIPOS>BOND
     1    24    25    1
     2    25    21    1
     3    21    22    1
     4    21    23    1
     5    21    15    1
     6    15    16   ar
     7    16    17   ar
     8    17    18   ar
     9    18    19   ar
    10    19     1    1
    11     1     2   ar
    12     2     3   ar
    13     3     4   ar
    14     4     5   ar
    15     5     6   ar
    16     5     7    1
    17     7     8    1
    18     8     9    1
    19     9    10   ar
    20    10    11   ar
    21    11    12   ar
    22    12    13    1
    23    12    14   ar
    24    19    20   ar
    25    20    15   ar
    26     6     1   ar
    27    14     9   ar
    28    14     4    1
