@<TRIPOS>MOLECULE
*****
 32 35 0 0 0
SMALL
GASTEIGER

@<TRIPOS>ATOM
      1 C          62.0141   89.3615   13.1050 C.3     1  UNL1        0.0324
      2 C          63.3551   89.9242   13.4723 C.ar    1  UNL1       -0.0071
      3 C          63.8326   91.1979   12.8403 C.ar    1  UNL1        0.0115
      4 C          65.1737   91.7606   13.2076 C.ar    1  UNL1        0.0476
      5 C          66.0373   91.0495   14.2069 C.ar    1  UNL1        0.0158
      6 C          65.5598   89.7758   14.8389 C.ar    1  UNL1        0.0157
      7 C          64.2187   89.2131   14.4716 C.ar    1  UNL1        0.0476
      8 N          63.7412   87.9392   15.1036 N.am    1  UNL1       -0.2683
      9 C          63.5867   86.7010   14.2713 C.2     1  UNL1        0.3082
     10 O          63.9096   86.7365   12.8069 O.2     1  UNL1       -0.2522
     11 N          63.1092   85.4272   14.9033 N.am    1  UNL1       -0.2680
     12 H          63.5293   87.9159   16.0647 H       1  UNL1        0.1564
     13 H          62.8972   85.4038   15.8644 H       1  UNL1        0.1564
     14 C          62.9546   84.1889   14.0710 C.ar    1  UNL1        0.0533
     15 C          62.0982   83.0587   14.5598 C.ar    1  UNL1        0.0262
     16 C          61.9436   81.8204   13.7275 C.ar    1  UNL1        0.0597
     17 CL         61.0871   80.6902   14.2164 Cl      1  UNL1       -0.0822
     18 C          62.6455   81.7124   12.4063 C.ar    1  UNL1        0.0229
     19 C          63.5020   82.8427   11.9174 C.ar    1  UNL1        0.0597
     20 CL         64.2039   82.7347   10.5962 Cl      1  UNL1       -0.0822
     21 C          63.6566   84.0809   12.7497 C.ar    1  UNL1        0.0262
     22 N          65.6512   93.0345   12.5756 N.pl3   1  UNL1       -0.3061
     23 C          66.1846   94.2334   13.3023 C.3     1  UNL1        0.0923
     24 C          66.5422   95.2729   12.2817 C.3     1  UNL1        0.0391
     25 C          66.2298   94.7164   10.9242 C.3     1  UNL1        0.0790
     26 C          65.6791   93.3330   11.1058 C.3     1  UNL1        0.1067
     27 N          66.4324   95.4198    9.6149 N.3     1  UNL1       -0.2736
     28 C          67.6136   95.2635    8.7037 C.3     1  UNL1        0.0721
     29 C          67.4007   96.1501    7.5127 C.3     1  UNL1        0.0187
     30 C          66.0880   96.8544    7.6879 C.3     1  UNL1        0.0174
     31 C          65.4895   96.4030    8.9872 C.3     1  UNL1        0.0576
     32 C          64.1784   96.8555    9.5584 C.3     1  UNL1        0.0173
@<TRIPOS>BOND
     1     1     2    1
     2     2     3   ar
     3     3     4   ar
     4     4    22    1
     5    22    23    1
     6    23    24    1
     7    24    25    1
     8    25    27    1
     9    27    28    1
    10    28    29    1
    11    29    30    1
    12    30    31    1
    13    31    32    1
    14    25    26    1
    15     4     5   ar
    16     5     6   ar
    17     6     7   ar
    18     7     8    1
    19     8     9   am
    20     9    10    2
    21     9    11   am
    22    11    14    1
    23    14    15   ar
    24    15    16   ar
    25    16    17    1
    26    16    18   ar
    27    18    19   ar
    28    19    20    1
    29    19    21   ar
    30     7     2   ar
    31    21    14   ar
    32    26    22    1
    33    31    27    1
    34     8    12    1
    35    11    13    1
@<TRIPOS>MOLECULE
*****
 32 35 0 0 0
SMALL
GASTEIGER

@<TRIPOS>ATOM
      1 C          61.9790   89.0904   12.9770 C.3     1  UNL1        0.0324
      2 C          63.2815   89.6993   13.4044 C.ar    1  UNL1       -0.0071
      3 C          63.7613   90.9688   12.7657 C.ar    1  UNL1        0.0115
      4 C          65.0639   91.5777   13.1931 C.ar    1  UNL1        0.0476
      5 C          65.8865   90.9171   14.2593 C.ar    1  UNL1        0.0158
      6 C          65.4067   89.6476   14.8980 C.ar    1  UNL1        0.0157
      7 C          64.1042   89.0387   14.4706 C.ar    1  UNL1        0.0476
      8 N          63.6243   87.7691   15.1093 N.am    1  UNL1       -0.2683
      9 C          63.5055   86.5168   14.2923 C.2     1  UNL1        0.3082
     10 O          63.8665   86.5340   12.8365 O.2     1  UNL1       -0.2522
     11 N          63.0257   85.2472   14.9311 N.am    1  UNL1       -0.2680
     12 H          63.3874   87.7578   16.0648 H       1  UNL1        0.1564
     13 H          62.7888   85.2359   15.8866 H       1  UNL1        0.1564
     14 C          62.9069   83.9949   14.1141 C.ar    1  UNL1        0.0533
     15 C          63.6684   83.8631   12.8285 C.ar    1  UNL1        0.0262
     16 C          63.5496   82.6107   12.0114 C.ar    1  UNL1        0.0597
     17 CL         64.3112   82.4789   10.7259 Cl      1  UNL1       -0.0822
     18 C          62.6692   81.4902   12.4799 C.ar    1  UNL1        0.0229
     19 C          61.9077   81.6221   13.7655 C.ar    1  UNL1        0.0597
     20 CL         61.0273   80.5017   14.2340 Cl      1  UNL1       -0.0822
     21 C          62.0265   82.8744   14.5825 C.ar    1  UNL1        0.0262
     22 N          65.5437   92.8473   12.5544 N.pl3   1  UNL1       -0.3061
     23 C          66.1691   94.0105   13.2656 C.3     1  UNL1        0.0923
     24 C          66.4943   95.0587   12.2430 C.3     1  UNL1        0.0391
     25 C          66.0698   94.5433   10.8997 C.3     1  UNL1        0.0790
     26 C          65.4823   93.1766   11.0922 C.3     1  UNL1        0.1067
     27 N          66.2084   95.2674    9.5935 N.3     1  UNL1       -0.2736
     28 C          65.4077   96.4579    9.1561 C.3     1  UNL1        0.0721
     29 C          65.8766   96.8545    7.7875 C.3     1  UNL1        0.0187
     30 C          66.9670   95.9089    7.3791 C.3     1  UNL1        0.0174
     31 C          67.1722   94.9281    8.4953 C.3     1  UNL1        0.0576
     32 C          68.1665   93.8050    8.5105 C.3     1  UNL1        0.0173
@<TRIPOS>BOND
     1     1     2    1
     2     2     3   ar
     3     3     4   ar
     4     4    22    1
     5    22    23    1
     6    23    24    1
     7    24    25    1
     8    25    27    1
     9    27    28    1
    10    28    29    1
    11    29    30    1
    12    30    31    1
    13    31    32    1
    14    25    26    1
    15     4     5   ar
    16     5     6   ar
    17     6     7   ar
    18     7     8    1
    19     8     9   am
    20     9    10    2
    21     9    11   am
    22    11    14    1
    23    14    15   ar
    24    15    16   ar
    25    16    17    1
    26    16    18   ar
    27    18    19   ar
    28    19    20    1
    29    19    21   ar
    30     7     2   ar
    31    21    14   ar
    32    26    22    1
    33    31    27    1
    34     8    12    1
    35    11    13    1
@<TRIPOS>MOLECULE
*****
 32 35 0 0 0
SMALL
GASTEIGER

@<TRIPOS>ATOM
      1 C          62.6539   89.8584   11.1664 C.3     1  UNL1        0.0324
      2 C          63.2747   89.3158   12.4195 C.ar    1  UNL1       -0.0071
      3 C          63.1624   87.8548   12.7403 C.ar    1  UNL1        0.0115
      4 C          63.7831   87.3122   13.9934 C.ar    1  UNL1        0.0476
      5 C          64.5162   88.2305   14.9256 C.ar    1  UNL1        0.0158
      6 C          64.6286   89.6914   14.6049 C.ar    1  UNL1        0.0157
      7 C          64.0078   90.2341   13.3518 C.ar    1  UNL1        0.0476
      8 N          64.1202   91.6951   13.0310 N.am    1  UNL1       -0.2683
      9 C          65.0222   92.1526   11.9233 C.2     1  UNL1        0.3082
     10 O          65.8119   91.1490   11.1363 O.2     1  UNL1       -0.2522
     11 N          65.1346   93.6136   11.6025 N.am    1  UNL1       -0.2680
     12 H          63.6019   92.3538   13.5475 H       1  UNL1        0.1564
     13 H          64.6163   94.2723   12.1191 H       1  UNL1        0.1564
     14 C          66.0366   94.0711   10.4948 C.ar    1  UNL1        0.0533
     15 C          67.3363   93.3649   10.2461 C.ar    1  UNL1        0.0262
     16 C          68.2384   93.8223    9.1383 C.ar    1  UNL1        0.0597
     17 CL         69.5382   93.1161    8.8895 Cl      1  UNL1       -0.0822
     18 C          67.8407   94.9859    8.2794 C.ar    1  UNL1        0.0229
     19 C          66.5409   95.6921    8.5282 C.ar    1  UNL1        0.0597
     20 CL         66.1432   96.8558    7.6693 Cl      1  UNL1       -0.0822
     21 C          65.6389   95.2347    9.6359 C.ar    1  UNL1        0.0262
     22 N          63.6708   85.8511   14.3141 N.pl3   1  UNL1       -0.3061
     23 C          63.9739   85.2131   15.6374 C.3     1  UNL1        0.0923
     24 C          63.7260   83.7393   15.5090 C.3     1  UNL1        0.0391
     25 C          63.2697   83.4665   14.1063 C.3     1  UNL1        0.0790
     26 C          63.2356   84.7717   13.3679 C.3     1  UNL1        0.1067
     27 N          62.9106   82.1242   13.5413 N.3     1  UNL1       -0.2736
     28 C          62.0815   81.0749   14.2207 C.3     1  UNL1        0.0721
     29 C          61.9760   79.8977   13.2971 C.3     1  UNL1        0.0187
     30 C          62.7399   80.2195   12.0469 C.3     1  UNL1        0.0174
     31 C          63.3175   81.5955   12.1979 C.3     1  UNL1        0.0576
     32 C          64.1549   82.3164   11.1835 C.3     1  UNL1        0.0173
@<TRIPOS>BOND
     1     1     2    1
     2     2     3   ar
     3     3     4   ar
     4     4    22    1
     5    22    23    1
     6    23    24    1
     7    24    25    1
     8    25    27    1
     9    27    28    1
    10    28    29    1
    11    29    30    1
    12    30    31    1
    13    31    32    1
    14    25    26    1
    15     4     5   ar
    16     5     6   ar
    17     6     7   ar
    18     7     8    1
    19     8     9   am
    20     9    10    2
    21     9    11   am
    22    11    14    1
    23    14    15   ar
    24    15    16   ar
    25    16    17    1
    26    16    18   ar
    27    18    19   ar
    28    19    20    1
    29    19    21   ar
    30     7     2   ar
    31    21    14   ar
    32    26    22    1
    33    31    27    1
    34     8    12    1
    35    11    13    1
@<TRIPOS>MOLECULE
*****
 32 35 0 0 0
SMALL
GASTEIGER

@<TRIPOS>ATOM
      1 C          61.0782   90.1312   10.7170 C.3     1  UNL1        0.0324
      2 C          60.4100   89.5744    9.4950 C.ar    1  UNL1       -0.0071
      3 C          60.2812   90.4172    8.2608 C.ar    1  UNL1        0.0115
      4 C          59.6130   89.8604    7.0388 C.ar    1  UNL1        0.0476
      5 C          59.0735   88.4609    7.0508 C.ar    1  UNL1        0.0158
      6 C          59.2023   87.6181    8.2849 C.ar    1  UNL1        0.0157
      7 C          59.8705   88.1749    9.5070 C.ar    1  UNL1        0.0476
      8 N          59.9993   87.3320   10.7412 N.am    1  UNL1       -0.2683
      9 C          61.1972   86.4481   10.9241 C.2     1  UNL1        0.3082
     10 O          62.2665   86.4071    9.8730 O.2     1  UNL1       -0.2522
     11 N          61.3260   85.6053   12.1583 N.am    1  UNL1       -0.2680
     12 H          59.2974   87.3590   11.4311 H       1  UNL1        0.1564
     13 H          60.6242   85.6322   12.8482 H       1  UNL1        0.1564
     14 C          62.5240   84.7214   12.3413 C.ar    1  UNL1        0.0533
     15 C          63.5412   85.0455   13.3949 C.ar    1  UNL1        0.0262
     16 C          64.7392   84.1616   13.5780 C.ar    1  UNL1        0.0597
     17 CL         65.7564   84.4857   14.6316 Cl      1  UNL1       -0.0822
     18 C          64.9200   82.9536   12.7073 C.ar    1  UNL1        0.0229
     19 C          63.9028   82.6295   11.6535 C.ar    1  UNL1        0.0597
     20 CL         64.0836   81.4216   10.7828 Cl      1  UNL1       -0.0822
     21 C          62.7048   83.5134   11.4706 C.ar    1  UNL1        0.0262
     22 N          59.4843   90.7033    5.8046 N.pl3   1  UNL1       -0.3061
     23 C          58.2007   91.1832    5.1946 C.3     1  UNL1        0.0923
     24 C          58.5397   91.9907    3.9768 C.3     1  UNL1        0.0391
     25 C          60.0328   92.0099    3.8341 C.3     1  UNL1        0.0790
     26 C          60.6165   91.2142    4.9638 C.3     1  UNL1        0.1067
     27 N          60.8063   92.7030    2.7519 N.3     1  UNL1       -0.2736
     28 C          60.2971   93.8066    1.8729 C.3     1  UNL1        0.0721
     29 C          61.4008   94.1999    0.9364 C.3     1  UNL1        0.0187
     30 C          62.5921   93.3393    1.2366 C.3     1  UNL1        0.0174
     31 C          62.2246   92.4141    2.3587 C.3     1  UNL1        0.0576
     32 C          63.1186   91.3814    2.9786 C.3     1  UNL1        0.0173
@<TRIPOS>BOND
     1     1     2    1
     2     2     3   ar
     3     3     4   ar
     4     4    22    1
     5    22    23    1
     6    23    24    1
     7    24    25    1
     8    25    27    1
     9    27    28    1
    10    28    29    1
    11    29    30    1
    12    30    31    1
    13    31    32    1
    14    25    26    1
    15     4     5   ar
    16     5     6   ar
    17     6     7   ar
    18     7     8    1
    19     8     9   am
    20     9    10    2
    21     9    11   am
    22    11    14    1
    23    14    15   ar
    24    15    16   ar
    25    16    17    1
    26    16    18   ar
    27    18    19   ar
    28    19    20    1
    29    19    21   ar
    30     7     2   ar
    31    21    14   ar
    32    26    22    1
    33    31    27    1
    34     8    12    1
    35    11    13    1
@<TRIPOS>MOLECULE
*****
 32 35 0 0 0
SMALL
GASTEIGER

@<TRIPOS>ATOM
      1 C          61.1900   90.0775   10.6598 C.3     1  UNL1        0.0324
      2 C          60.4671   89.5476    9.4570 C.ar    1  UNL1       -0.0071
      3 C          60.3416   90.3932    8.2245 C.ar    1  UNL1        0.0115
      4 C          59.6187   89.8632    7.0218 C.ar    1  UNL1        0.0476
      5 C          59.0213   88.4877    7.0515 C.ar    1  UNL1        0.0158
      6 C          59.1468   87.6421    8.2841 C.ar    1  UNL1        0.0157
      7 C          59.8697   88.1720    9.4868 C.ar    1  UNL1        0.0476
      8 N          59.9952   87.3263   10.7194 N.am    1  UNL1       -0.2683
      9 C          61.1953   86.4461   10.9060 C.2     1  UNL1        0.3082
     10 O          62.2700   86.4116    9.8601 O.2     1  UNL1       -0.2522
     11 N          61.3208   85.6004   12.1386 N.am    1  UNL1       -0.2680
     12 H          59.2899   87.3490   11.4058 H       1  UNL1        0.1564
     13 H          60.6155   85.6231   12.8250 H       1  UNL1        0.1564
     14 C          62.5210   84.7202   12.3252 C.ar    1  UNL1        0.0533
     15 C          62.7075   83.5121   11.4559 C.ar    1  UNL1        0.0262
     16 C          63.9077   82.6319   11.6425 C.ar    1  UNL1        0.0597
     17 CL         64.0942   81.4238   10.7733 Cl      1  UNL1       -0.0822
     18 C          64.9213   82.9598   12.6985 C.ar    1  UNL1        0.0229
     19 C          64.7348   84.1680   13.5678 C.ar    1  UNL1        0.0597
     20 CL         65.7484   84.4959   14.6237 Cl      1  UNL1       -0.0822
     21 C          63.5346   85.0481   13.3811 C.ar    1  UNL1        0.0262
     22 N          59.4932   90.7089    5.7892 N.pl3   1  UNL1       -0.3061
     23 C          58.2116   91.1968    5.1814 C.3     1  UNL1        0.0923
     24 C          58.5536   92.0046    3.9647 C.3     1  UNL1        0.0391
     25 C          60.0467   92.0160    3.8205 C.3     1  UNL1        0.0790
     26 C          60.6273   91.2152    4.9481 C.3     1  UNL1        0.1067
     27 N          60.8228   92.7068    2.7386 N.3     1  UNL1       -0.2736
     28 C          60.3168   93.8110    1.8584 C.3     1  UNL1        0.0721
     29 C          61.4224   94.2014    0.9228 C.3     1  UNL1        0.0187
     30 C          62.6116   93.3385    1.2248 C.3     1  UNL1        0.0174
     31 C          62.2410   92.4148    2.3471 C.3     1  UNL1        0.0576
     32 C          63.1321   91.3806    2.9686 C.3     1  UNL1        0.0173
@<TRIPOS>BOND
     1     1     2    1
     2     2     3   ar
     3     3     4   ar
     4     4    22    1
     5    22    23    1
     6    23    24    1
     7    24    25    1
     8    25    27    1
     9    27    28    1
    10    28    29    1
    11    29    30    1
    12    30    31    1
    13    31    32    1
    14    25    26    1
    15     4     5   ar
    16     5     6   ar
    17     6     7   ar
    18     7     8    1
    19     8     9   am
    20     9    10    2
    21     9    11   am
    22    11    14    1
    23    14    15   ar
    24    15    16   ar
    25    16    17    1
    26    16    18   ar
    27    18    19   ar
    28    19    20    1
    29    19    21   ar
    30     7     2   ar
    31    21    14   ar
    32    26    22    1
    33    31    27    1
    34     8    12    1
    35    11    13    1
@<TRIPOS>MOLECULE
*****
 32 35 0 0 0
SMALL
GASTEIGER

@<TRIPOS>ATOM
      1 C          63.1637   89.0833   17.3116 C.3     1  UNL1        0.0324
      2 C          63.6758   89.2799   15.9154 C.ar    1  UNL1       -0.0071
      3 C          64.3120   90.5812   15.5261 C.ar    1  UNL1        0.0115
      4 C          64.8240   90.7778   14.1300 C.ar    1  UNL1        0.0476
      5 C          64.6998   89.6729   13.1232 C.ar    1  UNL1        0.0158
      6 C          64.0636   88.3715   13.5124 C.ar    1  UNL1        0.0157
      7 C          63.5516   88.1750   14.9086 C.ar    1  UNL1        0.0476
      8 N          62.9153   86.8735   15.2978 N.am    1  UNL1       -0.2683
      9 C          63.0492   85.6764   14.4041 C.2     1  UNL1        0.3082
     10 O          63.8192   85.7806   13.1210 O.2     1  UNL1       -0.2522
     11 N          62.4129   84.3749   14.7933 N.am    1  UNL1       -0.2680
     12 H          62.4099   86.8051   16.1399 H       1  UNL1        0.1564
     13 H          61.9075   84.3065   15.6354 H       1  UNL1        0.1564
     14 C          62.5467   83.1777   13.8996 C.ar    1  UNL1        0.0533
     15 C          63.2287   83.3070   12.5699 C.ar    1  UNL1        0.0262
     16 C          63.3626   82.1098   11.6761 C.ar    1  UNL1        0.0597
     17 CL         64.0446   82.2391   10.3464 Cl      1  UNL1       -0.0822
     18 C          62.8144   80.7834   12.1120 C.ar    1  UNL1        0.0229
     19 C          62.1323   80.6541   13.4417 C.ar    1  UNL1        0.0597
     20 CL         61.5841   79.3277   13.8777 Cl      1  UNL1       -0.0822
     21 C          61.9985   81.8513   14.3355 C.ar    1  UNL1        0.0262
     22 N          65.4603   92.0792   13.7407 N.pl3   1  UNL1       -0.3061
     23 C          66.1420   93.0399   14.6693 C.3     1  UNL1        0.0923
     24 C          66.6295   94.2029   13.8570 C.3     1  UNL1        0.0391
     25 C          66.2490   93.9610   12.4264 C.3     1  UNL1        0.0790
     26 C          65.5264   92.6485   12.3545 C.3     1  UNL1        0.1067
     27 N          66.5401   94.8716   11.2705 N.3     1  UNL1       -0.2736
     28 C          66.2154   96.3342   11.1970 C.3     1  UNL1        0.0721
     29 C          66.6816   96.8461    9.8663 C.3     1  UNL1        0.0187
     30 C          67.2944   95.6999    9.1175 C.3     1  UNL1        0.0174
     31 C          67.2069   94.4796    9.9854 C.3     1  UNL1        0.0576
     32 C          67.6998   93.1080    9.6304 C.3     1  UNL1        0.0173
@<TRIPOS>BOND
     1     1     2    1
     2     2     3   ar
     3     3     4   ar
     4     4    22    1
     5    22    23    1
     6    23    24    1
     7    24    25    1
     8    25    27    1
     9    27    28    1
    10    28    29    1
    11    29    30    1
    12    30    31    1
    13    31    32    1
    14    25    26    1
    15     4     5   ar
    16     5     6   ar
    17     6     7   ar
    18     7     8    1
    19     8     9   am
    20     9    10    2
    21     9    11   am
    22    11    14    1
    23    14    15   ar
    24    15    16   ar
    25    16    17    1
    26    16    18   ar
    27    18    19   ar
    28    19    20    1
    29    19    21   ar
    30     7     2   ar
    31    21    14   ar
    32    26    22    1
    33    31    27    1
    34     8    12    1
    35    11    13    1
@<TRIPOS>MOLECULE
*****
 32 35 0 0 0
SMALL
GASTEIGER

@<TRIPOS>ATOM
      1 C          64.0792   92.6084    1.8863 C.3     1  UNL1        0.0324
      2 C          62.6210   92.8267    2.1622 C.ar    1  UNL1       -0.0071
      3 C          61.9302   92.0236    3.2242 C.ar    1  UNL1        0.0115
      4 C          60.4720   92.2418    3.5001 C.ar    1  UNL1        0.0476
      5 C          59.7047   93.2631    2.7140 C.ar    1  UNL1        0.0158
      6 C          60.3954   94.0662    1.6520 C.ar    1  UNL1        0.0157
      7 C          61.8536   93.8480    1.3761 C.ar    1  UNL1        0.0476
      8 N          62.5444   94.6511    0.3141 N.am    1  UNL1       -0.2683
      9 C          62.5216   94.1860   -1.1117 C.2     1  UNL1        0.3082
     10 O          61.8081   92.9178   -1.4756 O.2     1  UNL1       -0.2522
     11 N          63.2124   94.9892   -2.1738 N.am    1  UNL1       -0.2680
     12 H          63.0127   95.4835    0.5529 H       1  UNL1        0.1564
     13 H          63.6807   95.8216   -1.9350 H       1  UNL1        0.1564
     14 C          63.1896   94.5240   -3.5996 C.ar    1  UNL1        0.0533
     15 C          64.1564   93.4744   -4.0616 C.ar    1  UNL1        0.0262
     16 C          64.1337   93.0092   -5.4875 C.ar    1  UNL1        0.0597
     17 CL         65.1005   91.9595   -5.9495 Cl      1  UNL1       -0.0822
     18 C          63.1441   93.5937   -6.4514 C.ar    1  UNL1        0.0229
     19 C          62.1773   94.6435   -5.9894 C.ar    1  UNL1        0.0597
     20 CL         61.1877   95.2280   -6.9533 Cl      1  UNL1       -0.0822
     21 C          62.2001   95.1086   -4.5635 C.ar    1  UNL1        0.0262
     22 N          59.7813   91.4387    4.5621 N.pl3   1  UNL1       -0.3061
     23 C          58.3430   91.5664    4.9686 C.3     1  UNL1        0.0923
     24 C          58.0804   90.5735    6.0618 C.3     1  UNL1        0.0391
     25 C          59.3563   89.8321    6.3310 C.3     1  UNL1        0.0790
     26 C          60.4075   90.3668    5.4042 C.3     1  UNL1        0.1067
     27 N          59.5474   88.7466    7.3484 N.3     1  UNL1       -0.2736
     28 C          59.2766   87.2860    7.1407 C.3     1  UNL1        0.0721
     29 C          59.6047   86.5678    8.4161 C.3     1  UNL1        0.0187
     30 C          60.0784   87.5846    9.4119 C.3     1  UNL1        0.0174
     31 C          60.0430   88.9312    8.7521 C.3     1  UNL1        0.0576
     32 C          60.4344   90.2336    9.3848 C.3     1  UNL1        0.0173
@<TRIPOS>BOND
     1     1     2    1
     2     2     3   ar
     3     3     4   ar
     4     4    22    1
     5    22    23    1
     6    23    24    1
     7    24    25    1
     8    25    27    1
     9    27    28    1
    10    28    29    1
    11    29    30    1
    12    30    31    1
    13    31    32    1
    14    25    26    1
    15     4     5   ar
    16     5     6   ar
    17     6     7   ar
    18     7     8    1
    19     8     9   am
    20     9    10    2
    21     9    11   am
    22    11    14    1
    23    14    15   ar
    24    15    16   ar
    25    16    17    1
    26    16    18   ar
    27    18    19   ar
    28    19    20    1
    29    19    21   ar
    30     7     2   ar
    31    21    14   ar
    32    26    22    1
    33    31    27    1
    34     8    12    1
    35    11    13    1
@<TRIPOS>MOLECULE
*****
 32 35 0 0 0
SMALL
GASTEIGER

@<TRIPOS>ATOM
      1 C          62.1854   92.0137    3.4511 C.3     1  UNL1        0.0324
      2 C          60.9221   91.6731    4.1848 C.ar    1  UNL1       -0.0071
      3 C          60.8968   90.5139    5.1364 C.ar    1  UNL1        0.0115
      4 C          59.6335   90.1733    5.8700 C.ar    1  UNL1        0.0476
      5 C          58.3957   90.9919    5.6521 C.ar    1  UNL1        0.0158
      6 C          58.4210   92.1511    4.7005 C.ar    1  UNL1        0.0157
      7 C          59.6843   92.4917    3.9668 C.ar    1  UNL1        0.0476
      8 N          59.7096   93.6510    3.0152 N.am    1  UNL1       -0.2683
      9 C          59.6705   93.4077    1.5356 C.2     1  UNL1        0.3082
     10 O          59.6060   92.0052    1.0076 O.2     1  UNL1       -0.2522
     11 N          59.6958   94.5670    0.5840 N.am    1  UNL1       -0.2680
     12 H          59.7519   94.5715    3.3618 H       1  UNL1        0.1564
     13 H          59.7381   95.4875    0.9305 H       1  UNL1        0.1564
     14 C          59.6567   94.3237   -0.8956 C.ar    1  UNL1        0.0533
     15 C          60.9328   94.1109   -1.6546 C.ar    1  UNL1        0.0262
     16 C          60.8937   93.8676   -3.1343 C.ar    1  UNL1        0.0597
     17 CL         62.1699   93.6547   -3.8933 Cl      1  UNL1       -0.0822
     18 C          59.5785   93.8371   -3.8549 C.ar    1  UNL1        0.0229
     19 C          58.3023   94.0499   -3.0958 C.ar    1  UNL1        0.0597
     20 CL         56.9871   94.0195   -3.8164 Cl      1  UNL1       -0.0822
     21 C          58.3414   94.2932   -1.6162 C.ar    1  UNL1        0.0262
     22 N          59.6082   89.0141    6.8217 N.pl3   1  UNL1       -0.3061
     23 C          58.4706   88.0554    7.0134 C.3     1  UNL1        0.0923
     24 C          58.8754   87.0588    8.0589 C.3     1  UNL1        0.0391
     25 C          60.2633   87.4016    8.5133 C.3     1  UNL1        0.0790
     26 C          60.7162   88.6100    7.7486 C.3     1  UNL1        0.1067
     27 N          61.0586   86.6652    9.5502 N.3     1  UNL1       -0.2736
     28 C          60.8912   86.7813   11.0363 C.3     1  UNL1        0.0721
     29 C          61.8900   85.8713   11.6877 C.3     1  UNL1        0.0187
     30 C          62.6747   85.1929   10.6042 C.3     1  UNL1        0.0174
     31 C          62.1608   85.6836    9.2831 C.3     1  UNL1        0.0576
     32 C          62.6613   85.2659    7.9322 C.3     1  UNL1        0.0173
@<TRIPOS>BOND
     1     1     2    1
     2     2     3   ar
     3     3     4   ar
     4     4    22    1
     5    22    23    1
     6    23    24    1
     7    24    25    1
     8    25    27    1
     9    27    28    1
    10    28    29    1
    11    29    30    1
    12    30    31    1
    13    31    32    1
    14    25    26    1
    15     4     5   ar
    16     5     6   ar
    17     6     7   ar
    18     7     8    1
    19     8     9   am
    20     9    10    2
    21     9    11   am
    22    11    14    1
    23    14    15   ar
    24    15    16   ar
    25    16    17    1
    26    16    18   ar
    27    18    19   ar
    28    19    20    1
    29    19    21   ar
    30     7     2   ar
    31    21    14   ar
    32    26    22    1
    33    31    27    1
    34     8    12    1
    35    11    13    1
@<TRIPOS>MOLECULE
*****
 32 35 0 0 0
SMALL
GASTEIGER

@<TRIPOS>ATOM
      1 C          58.7300   87.2451    7.0571 C.3     1  UNL1        0.0324
      2 C          59.6531   87.8371    8.0805 C.ar    1  UNL1       -0.0071
      3 C          60.3477   86.9471    9.0680 C.ar    1  UNL1        0.0115
      4 C          61.2708   87.5391   10.0914 C.ar    1  UNL1        0.0476
      5 C          61.4993   89.0211   10.1273 C.ar    1  UNL1        0.0158
      6 C          60.8047   89.9111    9.1398 C.ar    1  UNL1        0.0157
      7 C          59.8815   89.3191    8.1164 C.ar    1  UNL1        0.0476
      8 N          59.1869   90.2092    7.1288 N.am    1  UNL1       -0.2683
      9 C          59.9240   90.7095    5.9220 C.2     1  UNL1        0.3082
     10 O          61.3558   90.3197    5.7027 O.2     1  UNL1       -0.2522
     11 N          59.2293   91.5996    4.9344 N.am    1  UNL1       -0.2680
     12 H          58.2472   90.4650    7.2727 H       1  UNL1        0.1564
     13 H          58.2896   91.8554    5.0783 H       1  UNL1        0.1564
     14 C          59.9665   92.0999    3.7277 C.ar    1  UNL1        0.0533
     15 C          59.2217   92.8040    2.6325 C.ar    1  UNL1        0.0262
     16 C          59.9588   93.3044    1.4256 C.ar    1  UNL1        0.0597
     17 CL         59.2140   94.0085    0.3305 Cl      1  UNL1       -0.0822
     18 C          61.4407   93.1005    1.3140 C.ar    1  UNL1        0.0229
     19 C          62.1854   92.3963    2.4093 C.ar    1  UNL1        0.0597
     20 CL         63.6673   92.1924    2.2977 Cl      1  UNL1       -0.0822
     21 C          61.4483   91.8960    3.6161 C.ar    1  UNL1        0.0262
     22 N          61.9655   86.6490   11.0790 N.pl3   1  UNL1       -0.3061
     23 C          62.9473   87.0890   12.1242 C.3     1  UNL1        0.0923
     24 C          63.3888   85.8745   12.8859 C.3     1  UNL1        0.0391
     25 C          62.6800   84.6839   12.3114 C.3     1  UNL1        0.0790
     26 C          61.8003   85.1626   11.1947 C.3     1  UNL1        0.1067
     27 N          62.8253   83.2640   12.7727 N.3     1  UNL1       -0.2736
     28 C          62.4107   82.7245   14.1094 C.3     1  UNL1        0.0721
     29 C          62.7398   81.2614   14.1411 C.3     1  UNL1        0.0187
     30 C          63.3579   80.8967   12.8239 C.3     1  UNL1        0.0174
     31 C          63.4107   82.1344   11.9781 C.3     1  UNL1        0.0576
     32 C          63.9535   82.2264   10.5828 C.3     1  UNL1        0.0173
@<TRIPOS>BOND
     1     1     2    1
     2     2     3   ar
     3     3     4   ar
     4     4    22    1
     5    22    23    1
     6    23    24    1
     7    24    25    1
     8    25    27    1
     9    27    28    1
    10    28    29    1
    11    29    30    1
    12    30    31    1
    13    31    32    1
    14    25    26    1
    15     4     5   ar
    16     5     6   ar
    17     6     7   ar
    18     7     8    1
    19     8     9   am
    20     9    10    2
    21     9    11   am
    22    11    14    1
    23    14    15   ar
    24    15    16   ar
    25    16    17    1
    26    16    18   ar
    27    18    19   ar
    28    19    20    1
    29    19    21   ar
    30     7     2   ar
    31    21    14   ar
    32    26    22    1
    33    31    27    1
    34     8    12    1
    35    11    13    1
