@<TRIPOS>MOLECULE
*****
 43 46 0 0 0
SMALL
GASTEIGER

@<TRIPOS>ATOM
      1 C          63.8452   90.8025   12.9409 C.3     1  UNL1        0.0735
      2 C          63.1388   90.8814   11.6200 C.3     1  UNL1        0.0217
      3 C          62.7339   89.4915   11.2271 C.3     1  UNL1        0.0283
      4 C          63.1900   88.5537   12.3052 C.3     1  UNL1        0.1361
      5 C          63.0687   87.0665   12.4593 C.ar    1  UNL1        0.0114
      6 C          62.3819   86.2563   11.4002 C.ar    1  UNL1       -0.0002
      7 C          62.2606   84.7692   11.5543 C.ar    1  UNL1        0.0177
      8 C          62.8261   84.0923   12.7675 C.ar    1  UNL1        0.1045
      9 N          63.5129   84.9025   13.8267 N.ar    1  UNL1       -0.2511
     10 C          63.6342   86.3896   13.6726 C.ar    1  UNL1        0.0562
     11 C          64.3210   87.1998   14.7318 C.3     1  UNL1        0.0456
     12 C          64.4423   88.6869   14.5777 C.3     1  UNL1        0.0099
     13 C          63.8768   89.3639   13.3644 C.3     1  UNL1        0.0430
     14 C          65.8984   92.2073   13.6897 C.2     1  UNL1        0.2248
     15 O          66.8037   91.2989   12.9117 O.2     1  UNL1       -0.2750
     16 N          64.4192   91.9592   13.7043 N.am    1  UNL1       -0.3058
     17 H          63.8250   92.5554   14.2149 H       1  UNL1        0.1494
     18 C          66.4724   93.3640   14.4531 C.3     1  UNL1        0.1118
     19 C          66.1578   92.6540   16.4271 C.3     1  UNL1        0.0298
     20 C          67.3507   93.1152   15.6433 C.3     1  UNL1        0.0971
     21 C          68.5436   93.5765   14.8596 C.3     1  UNL1        0.0298
     22 O          68.2290   92.8665   16.8336 O.3     1  UNL1       -0.3862
     23 H          69.1456   93.0942   16.6123 H       1  UNL1        0.2102
     24 S          62.4802   87.8785   11.1693 S.O2    1  UNL1        0.0091
     25 O          63.0683   87.6561   10.6793 O.2     1  UNL1       -0.1684
     26 O          61.1627   88.1416   11.8363 O.2     1  UNL1       -0.1684
     27 C          61.7703   87.2034   10.0334 C.ar    1  UNL1        0.1060
     28 C          60.2834   87.3395    9.8913 C.ar    1  UNL1        0.0207
     29 C          59.5735   86.6644    8.7554 C.ar    1  UNL1        0.0310
     30 C          60.3507   85.8531    7.7616 C.ar    1  UNL1        0.1402
     31 F          59.6408   85.1779    6.6256 F       1  UNL1       -0.2042
     32 C          61.8377   85.7170    7.9036 C.ar    1  UNL1        0.0310
     33 C          62.5475   86.3921    9.0395 C.ar    1  UNL1        0.0207
     34 C          62.7047   82.6051   12.9216 C.3     1  UNL1        0.3398
     35 F          61.8811   82.8007   14.1599 F       1  UNL1       -0.2160
     36 C          62.5833   81.1181   13.0757 C.3     1  UNL1        0.4378
     37 F          62.4620   79.6309   13.2298 F       1  UNL1       -0.1666
     38 F          61.0909   81.2477   13.1514 F       1  UNL1       -0.1666
     39 F          64.0499   80.8081   13.0193 F       1  UNL1       -0.1666
     40 C          63.5283   82.4096   11.6833 C.3     1  UNL1        0.4378
     41 F          64.3520   82.2141   10.4450 F       1  UNL1       -0.1666
     42 F          62.5379   81.5666   10.9362 F       1  UNL1       -0.1666
     43 F          64.7941   83.1632   11.9665 F       1  UNL1       -0.1666
@<TRIPOS>BOND
     1    19    20    1
     2    20    21    1
     3    20    22    1
     4    20    18    1
     5    18    14    1
     6    14    15    2
     7    14    16   am
     8     1    16    1
     9     1     2    1
    10     2     3    1
    11     3     4    1
    12     4    24    1
    13    24    25    2
    14    24    26    2
    15    24    27    1
    16    27    28   ar
    17    28    29   ar
    18    29    30   ar
    19    30    31    1
    20    30    32   ar
    21    32    33   ar
    22     4     5    1
    23     5     6   ar
    24     6     7   ar
    25     7     8   ar
    26     8    34    1
    27    34    35    1
    28    34    36    1
    29    36    37    1
    30    36    38    1
    31    36    39    1
    32    34    40    1
    33    40    41    1
    34    40    42    1
    35    40    43    1
    36     8     9   ar
    37     9    10   ar
    38    10    11    1
    39    11    12    1
    40    13    12    1
    41    13     1    1
    42    13     4    1
    43    33    27   ar
    44    10     5   ar
    45    22    23    1
    46    16    17    1
