@<TRIPOS>MOLECULE
*****
 30 33 0 0 0
SMALL
GASTEIGER

@<TRIPOS>ATOM
      1 O          62.8516   88.2261   11.9681 O.3     1  UNL1       -0.3822
      2 C          61.8483   88.3631   10.8614 C.3     1  UNL1        0.1164
      3 C          61.0031   88.0105    9.6735 C.3     1  UNL1        0.0487
      4 C          60.0510   89.0202    9.1042 C.3     1  UNL1        0.0714
      5 N          59.9442   90.3825    9.7228 N.3     1  UNL1       -0.2969
      6 C          60.7894   90.7351   10.9108 C.3     1  UNL1        0.0789
      7 C          61.7414   89.7255   11.4801 C.3     1  UNL1        0.1043
      8 H          63.2419   87.3384   11.9425 H       1  UNL1        0.2107
      9 H          58.9720   90.5012   10.0076 H       1  UNL1        0.1233
     10 C          62.3036   86.9532   10.6271 C.ar    1  UNL1        0.0046
     11 C          62.5453   86.0397   11.7920 C.ar    1  UNL1        0.0004
     12 C          63.0006   84.6299   11.5576 C.ar    1  UNL1        0.0317
     13 C          63.2142   84.1335   10.1584 C.ar    1  UNL1        0.1674
     14 F          63.6695   82.7236    9.9240 F       1  UNL1       -0.2018
     15 C          62.9725   85.0470    8.9934 C.ar    1  UNL1        0.1671
     16 F          63.1861   84.5506    7.5942 F       1  UNL1       -0.2018
     17 C          62.5172   86.4568    9.2278 C.ar    1  UNL1        0.0299
     18 C          62.5867   90.0780   12.6681 C.ar    1  UNL1        0.1579
     19 C          63.8991   90.8034   12.6324 C.ar    1  UNL1        0.0581
     20 C          64.3913   90.9407   14.0426 C.ar    1  UNL1        0.1235
     21 N          63.3832   90.3001   14.9500 N.ar    1  UNL1       -0.0773
     22 O          62.2678   89.7669   14.1005 O.2     1  UNL1       -0.3576
     23 C          65.6678   91.6024   14.4704 C.ar    1  UNL1        0.0316
     24 C          66.8547   91.6059   13.5532 C.ar    1  UNL1        0.0047
     25 C          68.1311   92.2676   13.9810 C.ar    1  UNL1        0.0297
     26 C          68.2205   92.9258   15.3260 C.ar    1  UNL1        0.1410
     27 F          69.4969   93.5874   15.7537 F       1  UNL1       -0.2041
     28 C          67.0336   92.9221   16.2431 C.ar    1  UNL1        0.0411
     29 C          65.7573   92.2605   15.8153 C.ar    1  UNL1        0.0614
     30 CL         64.5703   92.2569   16.7325 Cl      1  UNL1       -0.0821
@<TRIPOS>BOND
     1     2     1    1
     2     2    10    1
     3    10    11   ar
     4    11    12   ar
     5    12    13   ar
     6    13    14    1
     7    13    15   ar
     8    15    16    1
     9    15    17   ar
    10     2     3    1
    11     3     4    1
    12     4     5    1
    13     5     6    1
    14     6     7    1
    15     7    18    1
    16    18    19   ar
    17    19    20   ar
    18    20    23    1
    19    23    24   ar
    20    24    25   ar
    21    25    26   ar
    22    26    27    1
    23    26    28   ar
    24    28    29   ar
    25    29    30    1
    26    20    21   ar
    27    21    22   ar
    28     7     2    1
    29    22    18   ar
    30    17    10   ar
    31    29    23   ar
    32     1     8    1
    33     5     9    1
@<TRIPOS>MOLECULE
*****
 30 33 0 0 0
SMALL
GASTEIGER

@<TRIPOS>ATOM
      1 O          62.6238   87.7561   11.4993 O.3     1  UNL1       -0.3822
      2 C          61.7541   87.7027   10.2783 C.3     1  UNL1        0.1164
      3 C          61.0773   87.1653    9.0523 C.3     1  UNL1        0.0487
      4 C          60.1473   88.0399    8.2647 C.3     1  UNL1        0.0714
      5 N          59.8942   89.4519    8.7032 N.3     1  UNL1       -0.2969
      6 C          60.5710   89.9893    9.9292 C.3     1  UNL1        0.0789
      7 C          61.5010   89.1147   10.7167 C.3     1  UNL1        0.1043
      8 H          63.0614   86.8993   11.6223 H       1  UNL1        0.2107
      9 H          58.8899   89.5358    8.8606 H       1  UNL1        0.1233
     10 C          62.3093   86.3092   10.2639 C.ar    1  UNL1        0.0046
     11 C          62.8586   85.7338    8.9922 C.ar    1  UNL1        0.0004
     12 C          63.4137   84.3404    8.9779 C.ar    1  UNL1        0.0317
     13 C          63.4196   83.5225   10.2352 C.ar    1  UNL1        0.1674
     14 F          63.9747   82.1290   10.2209 F       1  UNL1       -0.2018
     15 C          62.8703   84.0979   11.5069 C.ar    1  UNL1        0.1671
     16 F          62.8762   83.2799   12.7642 F       1  UNL1       -0.2018
     17 C          62.3152   85.4913   11.5212 C.ar    1  UNL1        0.0299
     18 C          62.1779   89.6520   11.9428 C.ar    1  UNL1        0.1579
     19 C          63.4182   90.4953   11.9672 C.ar    1  UNL1        0.0581
     20 C          63.7400   90.8048   13.3992 C.ar    1  UNL1        0.1235
     21 N          62.6988   90.1528   14.2598 N.ar    1  UNL1       -0.0773
     22 O          61.7333   89.4403   13.3597 O.2     1  UNL1       -0.3576
     23 C          64.8997   91.6227   13.8852 C.ar    1  UNL1        0.0316
     24 C          65.3061   91.5645   15.3280 C.ar    1  UNL1        0.0047
     25 C          66.4658   92.3825   15.8141 C.ar    1  UNL1        0.0297
     26 C          67.2189   93.2586   14.8574 C.ar    1  UNL1        0.1410
     27 F          68.3785   94.0765   15.3435 F       1  UNL1       -0.2041
     28 C          66.8124   93.3168   13.4148 C.ar    1  UNL1        0.0411
     29 C          65.6529   92.4989   12.9287 C.ar    1  UNL1        0.0614
     30 CL         65.2464   92.5571   11.4859 Cl      1  UNL1       -0.0821
@<TRIPOS>BOND
     1     2     1    1
     2     2    10    1
     3    10    11   ar
     4    11    12   ar
     5    12    13   ar
     6    13    14    1
     7    13    15   ar
     8    15    16    1
     9    15    17   ar
    10     2     3    1
    11     3     4    1
    12     4     5    1
    13     5     6    1
    14     6     7    1
    15     7    18    1
    16    18    19   ar
    17    19    20   ar
    18    20    23    1
    19    23    24   ar
    20    24    25   ar
    21    25    26   ar
    22    26    27    1
    23    26    28   ar
    24    28    29   ar
    25    29    30    1
    26    20    21   ar
    27    21    22   ar
    28     7     2    1
    29    22    18   ar
    30    17    10   ar
    31    29    23   ar
    32     1     8    1
    33     5     9    1
@<TRIPOS>MOLECULE
*****
 30 33 0 0 0
SMALL
GASTEIGER

@<TRIPOS>ATOM
      1 O          62.6761   87.1018   11.9242 O.3     1  UNL1       -0.3822
      2 C          62.0122   86.6607   10.6534 C.3     1  UNL1        0.1164
      3 C          61.5338   85.7628    9.5512 C.3     1  UNL1        0.0487
      4 C          60.7518   86.3333    8.4053 C.3     1  UNL1        0.0714
      5 N          60.4482   87.8017    8.3617 N.3     1  UNL1       -0.2969
      6 C          60.9266   88.6995    9.4639 C.3     1  UNL1        0.0789
      7 C          61.7086   88.1290   10.6098 C.3     1  UNL1        0.1043
      8 H          63.0785   86.3352   12.3617 H       1  UNL1        0.2107
      9 H          59.4328   87.8915    8.3285 H       1  UNL1        0.1233
     10 C          62.5463   85.3455   11.1384 C.ar    1  UNL1        0.0046
     11 C          62.3401   84.9325   12.5656 C.ar    1  UNL1        0.0004
     12 C          62.8742   83.6175   13.0505 C.ar    1  UNL1        0.0317
     13 C          63.6146   82.7153   12.1082 C.ar    1  UNL1        0.1674
     14 F          64.1488   81.4001   12.5931 F       1  UNL1       -0.2018
     15 C          63.8209   83.1282   10.6810 C.ar    1  UNL1        0.1671
     16 F          64.5613   82.2261    9.7387 F       1  UNL1       -0.2018
     17 C          63.2867   84.4433   10.1961 C.ar    1  UNL1        0.0299
     18 C          62.1870   89.0268   11.7122 C.ar    1  UNL1        0.1579
     19 C          63.5190   89.7137   11.7745 C.ar    1  UNL1        0.0581
     20 C          63.5726   90.5066   13.0465 C.ar    1  UNL1        0.1235
     21 N          62.2737   90.3099   13.7705 N.ar    1  UNL1       -0.0773
     22 O          61.4173   89.3953   12.9458 O.2     1  UNL1       -0.3576
     23 C          64.7231   91.3486   13.5129 C.ar    1  UNL1        0.0316
     24 C          65.2060   91.2405   14.9289 C.ar    1  UNL1        0.0047
     25 C          66.3565   92.0825   15.3953 C.ar    1  UNL1        0.0297
     26 C          67.0241   93.0325   14.4455 C.ar    1  UNL1        0.1410
     27 F          68.1745   93.8745   14.9119 F       1  UNL1       -0.2041
     28 C          66.5411   93.1405   13.0296 C.ar    1  UNL1        0.0411
     29 C          65.3907   92.2986   12.5632 C.ar    1  UNL1        0.0614
     30 CL         64.9077   92.4066   11.1472 Cl      1  UNL1       -0.0821
@<TRIPOS>BOND
     1     2     1    1
     2     2    10    1
     3    10    11   ar
     4    11    12   ar
     5    12    13   ar
     6    13    14    1
     7    13    15   ar
     8    15    16    1
     9    15    17   ar
    10     2     3    1
    11     3     4    1
    12     4     5    1
    13     5     6    1
    14     6     7    1
    15     7    18    1
    16    18    19   ar
    17    19    20   ar
    18    20    23    1
    19    23    24   ar
    20    24    25   ar
    21    25    26   ar
    22    26    27    1
    23    26    28   ar
    24    28    29   ar
    25    29    30    1
    26    20    21   ar
    27    21    22   ar
    28     7     2    1
    29    22    18   ar
    30    17    10   ar
    31    29    23   ar
    32     1     8    1
    33     5     9    1
@<TRIPOS>MOLECULE
*****
 30 33 0 0 0
SMALL
GASTEIGER

@<TRIPOS>ATOM
      1 O          64.0282   88.9395   13.1286 O.3     1  UNL1       -0.3822
      2 C          63.4845   89.8776   12.0921 C.3     1  UNL1        0.1164
      3 C          63.2423   91.1439   11.3255 C.3     1  UNL1        0.0487
      4 C          62.3208   91.1395   10.1419 C.3     1  UNL1        0.0714
      5 N          61.6415   89.8687    9.7251 N.3     1  UNL1       -0.2969
      6 C          61.8837   88.6024   10.4917 C.3     1  UNL1        0.0789
      7 C          62.8052   88.6068   11.6753 C.3     1  UNL1        0.1043
      8 H          64.6244   89.4231   13.7216 H       1  UNL1        0.2107
      9 H          61.9217   89.6875    8.7612 H       1  UNL1        0.1233
     10 C          64.3526   90.8226   12.8690 C.ar    1  UNL1        0.0046
     11 C          64.5735   90.6038   14.3364 C.ar    1  UNL1        0.0004
     12 C          65.4416   91.5487   15.1132 C.ar    1  UNL1        0.0317
     13 C          66.0889   92.7124   14.4226 C.ar    1  UNL1        0.1674
     14 F          66.9570   93.6574   15.1995 F       1  UNL1       -0.2018
     15 C          65.8680   92.9312   12.9552 C.ar    1  UNL1        0.1671
     16 F          66.5152   94.0949   12.2646 F       1  UNL1       -0.2018
     17 C          64.9999   91.9863   12.1784 C.ar    1  UNL1        0.0299
     18 C          63.0475   87.3406   12.4420 C.ar    1  UNL1        0.1579
     19 C          62.6108   85.9650   12.0332 C.ar    1  UNL1        0.0581
     20 C          63.0625   85.0020   13.0908 C.ar    1  UNL1        0.1235
     21 N          63.7783   85.7822   14.1532 N.ar    1  UNL1       -0.0773
     22 O          63.7691   87.2276   13.7522 O.2     1  UNL1       -0.3576
     23 C          62.8378   83.5188   13.0866 C.ar    1  UNL1        0.0316
     24 C          62.1124   82.8671   14.2265 C.ar    1  UNL1        0.0047
     25 C          61.8877   81.3839   14.2223 C.ar    1  UNL1        0.0297
     26 C          62.3883   80.5527   13.0784 C.ar    1  UNL1        0.1410
     27 F          62.1636   79.0697   13.0744 F       1  UNL1       -0.2041
     28 C          63.1136   81.2045   11.9387 C.ar    1  UNL1        0.0411
     29 C          63.3383   82.6876   11.9428 C.ar    1  UNL1        0.0614
     30 CL         64.0637   83.3394   10.8030 Cl      1  UNL1       -0.0821
@<TRIPOS>BOND
     1     2     1    1
     2     2    10    1
     3    10    11   ar
     4    11    12   ar
     5    12    13   ar
     6    13    14    1
     7    13    15   ar
     8    15    16    1
     9    15    17   ar
    10     2     3    1
    11     3     4    1
    12     4     5    1
    13     5     6    1
    14     6     7    1
    15     7    18    1
    16    18    19   ar
    17    19    20   ar
    18    20    23    1
    19    23    24   ar
    20    24    25   ar
    21    25    26   ar
    22    26    27    1
    23    26    28   ar
    24    28    29   ar
    25    29    30    1
    26    20    21   ar
    27    21    22   ar
    28     7     2    1
    29    22    18   ar
    30    17    10   ar
    31    29    23   ar
    32     1     8    1
    33     5     9    1
@<TRIPOS>MOLECULE
*****
 30 33 0 0 0
SMALL
GASTEIGER

@<TRIPOS>ATOM
      1 O          65.1197   91.7355   12.0665 O.3     1  UNL1       -0.3822
      2 C          65.8549   92.5291   13.1056 C.3     1  UNL1        0.1164
      3 C          66.7719   93.5494   13.7123 C.3     1  UNL1        0.0487
      4 C          66.9100   93.6413   15.2031 C.3     1  UNL1        0.0714
      5 N          66.1311   92.7130   16.0872 N.3     1  UNL1       -0.2969
      6 C          65.2141   91.6928   15.4804 C.3     1  UNL1        0.0789
      7 C          65.0760   91.6008   13.9896 C.3     1  UNL1        0.1043
      8 H          65.3644   92.0539   11.1835 H       1  UNL1        0.2107
      9 H          65.5591   93.2976   16.6966 H       1  UNL1        0.1233
     10 C          66.3785   93.1818   11.8606 C.ar    1  UNL1        0.0046
     11 C          66.1327   94.6416   11.6189 C.ar    1  UNL1        0.0004
     12 C          66.6563   95.2943   10.3740 C.ar    1  UNL1        0.0317
     13 C          67.4257   94.4871    9.3707 C.ar    1  UNL1        0.1674
     14 F          67.9493   95.1398    8.1258 F       1  UNL1       -0.2018
     15 C          67.6715   93.0273    9.6124 C.ar    1  UNL1        0.1671
     16 F          68.4409   92.2201    8.6092 F       1  UNL1       -0.2018
     17 C          67.1479   92.3747   10.8574 C.ar    1  UNL1        0.0299
     18 C          64.1590   90.5806   13.3828 C.ar    1  UNL1        0.1579
     19 C          64.3767   89.0965   13.3693 C.ar    1  UNL1        0.0581
     20 C          63.2156   88.4641   12.6611 C.ar    1  UNL1        0.1235
     21 N          62.2801   89.5572   12.2369 N.ar    1  UNL1       -0.0773
     22 O          62.8632   90.8653   12.6829 O.2     1  UNL1       -0.3576
     23 C          63.0235   86.9962   12.4195 C.ar    1  UNL1        0.0316
     24 C          62.2862   86.5270   11.2003 C.ar    1  UNL1        0.0047
     25 C          62.0941   85.0590   10.9587 C.ar    1  UNL1        0.0297
     26 C          62.6393   84.0604   11.9362 C.ar    1  UNL1        0.1410
     27 F          62.4473   82.5925   11.6946 F       1  UNL1       -0.2041
     28 C          63.3766   84.5297   13.1553 C.ar    1  UNL1        0.0411
     29 C          63.5687   85.9975   13.3969 C.ar    1  UNL1        0.0614
     30 CL         64.3059   86.4668   14.6161 Cl      1  UNL1       -0.0821
@<TRIPOS>BOND
     1     2     1    1
     2     2    10    1
     3    10    11   ar
     4    11    12   ar
     5    12    13   ar
     6    13    14    1
     7    13    15   ar
     8    15    16    1
     9    15    17   ar
    10     2     3    1
    11     3     4    1
    12     4     5    1
    13     5     6    1
    14     6     7    1
    15     7    18    1
    16    18    19   ar
    17    19    20   ar
    18    20    23    1
    19    23    24   ar
    20    24    25   ar
    21    25    26   ar
    22    26    27    1
    23    26    28   ar
    24    28    29   ar
    25    29    30    1
    26    20    21   ar
    27    21    22   ar
    28     7     2    1
    29    22    18   ar
    30    17    10   ar
    31    29    23   ar
    32     1     8    1
    33     5     9    1
@<TRIPOS>MOLECULE
*****
 30 33 0 0 0
SMALL
GASTEIGER

@<TRIPOS>ATOM
      1 O          65.1807   91.4519   11.8965 O.3     1  UNL1       -0.3822
      2 C          65.7622   92.3762   12.9250 C.3     1  UNL1        0.1164
      3 C          66.5275   93.5214   13.5189 C.3     1  UNL1        0.0487
      4 C          66.5616   93.7093   15.0067 C.3     1  UNL1        0.0714
      5 N          65.8304   92.7519   15.9005 N.3     1  UNL1       -0.2969
      6 C          65.0651   91.6067   15.3066 C.3     1  UNL1        0.0789
      7 C          65.0310   91.4188   13.8188 C.3     1  UNL1        0.1043
      8 H          65.4455   91.7460   11.0109 H       1  UNL1        0.2107
      9 H          65.1632   93.3037   16.4399 H       1  UNL1        0.1233
     10 C          66.2915   93.0125   11.6739 C.ar    1  UNL1        0.0046
     11 C          65.8910   94.4135   11.3179 C.ar    1  UNL1        0.0004
     12 C          66.4202   95.0498   10.0669 C.ar    1  UNL1        0.0317
     13 C          67.3500   94.2851    9.1720 C.ar    1  UNL1        0.1674
     14 F          67.8792   94.9214    7.9209 F       1  UNL1       -0.2018
     15 C          67.7504   92.8841    9.5281 C.ar    1  UNL1        0.1671
     16 F          68.6802   92.1194    8.6332 F       1  UNL1       -0.2018
     17 C          67.2212   92.2478   10.7790 C.ar    1  UNL1        0.0299
     18 C          64.2657   90.2737   13.2247 C.ar    1  UNL1        0.1579
     19 C          63.3315   90.3504   12.0537 C.ar    1  UNL1        0.0581
     20 C          62.7888   88.9749   11.8027 C.ar    1  UNL1        0.1235
     21 N          63.3876   88.0478   12.8186 N.ar    1  UNL1       -0.0773
     22 O          64.3004   88.8505   13.6975 O.2     1  UNL1       -0.3576
     23 C          61.8177   88.5932   10.7250 C.ar    1  UNL1        0.0316
     24 C          61.1466   89.6580    9.9088 C.ar    1  UNL1        0.0047
     25 C          60.1756   89.2764    8.8311 C.ar    1  UNL1        0.0297
     26 C          59.8756   87.8301    8.5696 C.ar    1  UNL1        0.1410
     27 F          58.9046   87.4485    7.4919 F       1  UNL1       -0.2041
     28 C          60.5467   86.7655    9.3857 C.ar    1  UNL1        0.0411
     29 C          61.5178   87.1470   10.4634 C.ar    1  UNL1        0.0614
     30 CL         62.1889   86.0824   11.2796 Cl      1  UNL1       -0.0821
@<TRIPOS>BOND
     1     2     1    1
     2     2    10    1
     3    10    11   ar
     4    11    12   ar
     5    12    13   ar
     6    13    14    1
     7    13    15   ar
     8    15    16    1
     9    15    17   ar
    10     2     3    1
    11     3     4    1
    12     4     5    1
    13     5     6    1
    14     6     7    1
    15     7    18    1
    16    18    19   ar
    17    19    20   ar
    18    20    23    1
    19    23    24   ar
    20    24    25   ar
    21    25    26   ar
    22    26    27    1
    23    26    28   ar
    24    28    29   ar
    25    29    30    1
    26    20    21   ar
    27    21    22   ar
    28     7     2    1
    29    22    18   ar
    30    17    10   ar
    31    29    23   ar
    32     1     8    1
    33     5     9    1
@<TRIPOS>MOLECULE
*****
 30 33 0 0 0
SMALL
GASTEIGER

@<TRIPOS>ATOM
      1 O          64.2877   91.7730   11.0053 O.3     1  UNL1       -0.3822
      2 C          65.0044   92.0739   12.2882 C.3     1  UNL1        0.1164
      3 C          66.0025   92.6627   13.2406 C.3     1  UNL1        0.0487
      4 C          65.9413   92.3180   14.6991 C.3     1  UNL1        0.0714
      5 N          64.8820   91.3844   15.2053 N.3     1  UNL1       -0.2969
      6 C          63.8839   90.7956   14.2530 C.3     1  UNL1        0.0789
      7 C          63.9450   91.1403   12.7944 C.3     1  UNL1        0.1043
      8 H          64.7120   92.2538   10.2775 H       1  UNL1        0.2107
      9 H          64.3506   91.8962   15.9096 H       1  UNL1        0.1233
     10 C          65.8148   92.9030   11.3364 C.ar    1  UNL1        0.0046
     11 C          65.5931   94.3843   11.2559 C.ar    1  UNL1        0.0004
     12 C          66.4035   95.2133   10.3042 C.ar    1  UNL1        0.0317
     13 C          67.4357   94.5610    9.4329 C.ar    1  UNL1        0.1674
     14 F          68.2461   95.3901    8.4811 F       1  UNL1       -0.2018
     15 C          67.6575   93.0797    9.5134 C.ar    1  UNL1        0.1671
     16 F          68.6896   92.4274    8.6421 F       1  UNL1       -0.2018
     17 C          66.8470   92.2507   10.4652 C.ar    1  UNL1        0.0299
     18 C          62.9469   90.5516   11.8420 C.ar    1  UNL1        0.1579
     19 C          63.0928   89.2550   11.1019 C.ar    1  UNL1        0.0581
     20 C          61.8637   89.0582   10.2650 C.ar    1  UNL1        0.1235
     21 N          60.9581   90.2330   10.4878 N.ar    1  UNL1       -0.0773
     22 O          61.6276   91.1560   11.4625 O.2     1  UNL1       -0.3576
     23 C          61.5885   87.8913    9.3635 C.ar    1  UNL1        0.0316
     24 C          62.4858   86.6897    9.3970 C.ar    1  UNL1        0.0047
     25 C          62.2106   85.5228    8.4955 C.ar    1  UNL1        0.0297
     26 C          61.0381   85.5576    7.5605 C.ar    1  UNL1        0.1410
     27 F          60.7629   84.3908    6.6590 F       1  UNL1       -0.2041
     28 C          60.1409   86.7592    7.5271 C.ar    1  UNL1        0.0411
     29 C          60.4161   87.9260    8.4285 C.ar    1  UNL1        0.0614
     30 CL         59.5188   89.1277    8.3951 Cl      1  UNL1       -0.0821
@<TRIPOS>BOND
     1     2     1    1
     2     2    10    1
     3    10    11   ar
     4    11    12   ar
     5    12    13   ar
     6    13    14    1
     7    13    15   ar
     8    15    16    1
     9    15    17   ar
    10     2     3    1
    11     3     4    1
    12     4     5    1
    13     5     6    1
    14     6     7    1
    15     7    18    1
    16    18    19   ar
    17    19    20   ar
    18    20    23    1
    19    23    24   ar
    20    24    25   ar
    21    25    26   ar
    22    26    27    1
    23    26    28   ar
    24    28    29   ar
    25    29    30    1
    26    20    21   ar
    27    21    22   ar
    28     7     2    1
    29    22    18   ar
    30    17    10   ar
    31    29    23   ar
    32     1     8    1
    33     5     9    1
@<TRIPOS>MOLECULE
*****
 30 33 0 0 0
SMALL
GASTEIGER

@<TRIPOS>ATOM
      1 O          63.3958   86.2063   13.0020 O.3     1  UNL1       -0.3822
      2 C          63.2613   84.7314   13.2402 C.3     1  UNL1        0.1164
      3 C          63.0870   83.2683   12.9591 C.3     1  UNL1        0.0487
      4 C          63.0738   82.2836   14.0906 C.3     1  UNL1        0.0714
      5 N          63.2349   82.7621   15.5031 N.3     1  UNL1       -0.2969
      6 C          63.4091   84.2251   15.7842 C.3     1  UNL1        0.0789
      7 C          63.4223   85.2098   14.6527 C.3     1  UNL1        0.1043
      8 H          63.3396   86.3865   12.0505 H       1  UNL1        0.2107
      9 H          64.0555   82.2896   15.8822 H       1  UNL1        0.1233
     10 C          63.1469   84.7652   11.7449 C.ar    1  UNL1        0.0046
     11 C          63.8467   83.7297   10.9156 C.ar    1  UNL1        0.0004
     12 C          63.7324   83.7635    9.4204 C.ar    1  UNL1        0.0317
     13 C          62.9182   84.8330    8.7545 C.ar    1  UNL1        0.1674
     14 F          62.8038   84.8668    7.2592 F       1  UNL1       -0.2018
     15 C          62.2184   85.8685    9.5838 C.ar    1  UNL1        0.1671
     16 F          61.4042   86.9380    8.9179 F       1  UNL1       -0.2018
     17 C          62.3327   85.8347   11.0790 C.ar    1  UNL1        0.0299
     18 C          63.5966   86.6729   14.9337 C.ar    1  UNL1        0.1579
     19 C          64.2922   87.6641   14.0484 C.ar    1  UNL1        0.0581
     20 C          64.2313   89.0054   14.7170 C.ar    1  UNL1        0.1235
     21 N          63.4981   88.8433   16.0155 N.ar    1  UNL1       -0.0773
     22 O          63.1058   87.4018   16.1494 O.2     1  UNL1       -0.3576
     23 C          64.8033   90.2844   14.1811 C.ar    1  UNL1        0.0316
     24 C          65.9193   90.9709   14.9114 C.ar    1  UNL1        0.0047
     25 C          66.4912   92.2499   14.3755 C.ar    1  UNL1        0.0297
     26 C          65.9472   92.8423   13.1093 C.ar    1  UNL1        0.1410
     27 F          66.5192   94.1212   12.5735 F       1  UNL1       -0.2041
     28 C          64.8314   92.1557   12.3791 C.ar    1  UNL1        0.0411
     29 C          64.2594   90.8768   12.9149 C.ar    1  UNL1        0.0614
     30 CL         63.1434   90.1902   12.1846 Cl      1  UNL1       -0.0821
@<TRIPOS>BOND
     1     2     1    1
     2     2    10    1
     3    10    11   ar
     4    11    12   ar
     5    12    13   ar
     6    13    14    1
     7    13    15   ar
     8    15    16    1
     9    15    17   ar
    10     2     3    1
    11     3     4    1
    12     4     5    1
    13     5     6    1
    14     6     7    1
    15     7    18    1
    16    18    19   ar
    17    19    20   ar
    18    20    23    1
    19    23    24   ar
    20    24    25   ar
    21    25    26   ar
    22    26    27    1
    23    26    28   ar
    24    28    29   ar
    25    29    30    1
    26    20    21   ar
    27    21    22   ar
    28     7     2    1
    29    22    18   ar
    30    17    10   ar
    31    29    23   ar
    32     1     8    1
    33     5     9    1
@<TRIPOS>MOLECULE
*****
 30 33 0 0 0
SMALL
GASTEIGER

@<TRIPOS>ATOM
      1 O          63.3643   88.6251   12.0765 O.3     1  UNL1       -0.3822
      2 C          62.5038   89.4181   11.1379 C.3     1  UNL1        0.1164
      3 C          61.9778   90.5810   10.3500 C.3     1  UNL1        0.0487
      4 C          60.7879   90.4031    9.4542 C.3     1  UNL1        0.0714
      5 N          60.1241   89.0623    9.3462 N.3     1  UNL1       -0.2969
      6 C          60.6502   87.8994   10.1341 C.3     1  UNL1        0.0789
      7 C          61.8400   88.0772   11.0299 C.3     1  UNL1        0.1043
      8 H          64.0532   89.1990   12.4466 H       1  UNL1        0.2107
      9 H          60.1622   88.7932    8.3631 H       1  UNL1        0.1233
     10 C          63.4665   90.4835   11.5719 C.ar    1  UNL1        0.0046
     11 C          63.9443   91.5089   10.5869 C.ar    1  UNL1        0.0004
     12 C          64.9068   92.5743   11.0209 C.ar    1  UNL1        0.0317
     13 C          65.3917   92.6142   12.4398 C.ar    1  UNL1        0.1674
     14 F          66.3543   93.6796   12.8738 F       1  UNL1       -0.2018
     15 C          64.9139   91.5888   13.4248 C.ar    1  UNL1        0.1671
     16 F          65.3987   91.6287   14.8437 F       1  UNL1       -0.2018
     17 C          63.9513   90.5234   12.9908 C.ar    1  UNL1        0.0299
     18 C          62.3662   86.9143   11.8179 C.ar    1  UNL1        0.1579
     19 C          61.9852   85.4760   11.6281 C.ar    1  UNL1        0.0581
     20 C          62.7493   84.6584   12.6269 C.ar    1  UNL1        0.1235
     21 N          63.6026   85.5914   13.4340 N.ar    1  UNL1       -0.0773
     22 O          63.3658   86.9856   12.9340 O.2     1  UNL1       -0.3576
     23 C          62.6734   83.1692   12.7900 C.ar    1  UNL1        0.0316
     24 C          62.9290   82.2721   11.6152 C.ar    1  UNL1        0.0047
     25 C          62.8531   80.7829   11.7783 C.ar    1  UNL1        0.0297
     26 C          62.5217   80.1909   13.1161 C.ar    1  UNL1        0.1410
     27 F          62.4459   78.7017   13.2791 F       1  UNL1       -0.2041
     28 C          62.2662   81.0880   14.2908 C.ar    1  UNL1        0.0411
     29 C          62.3421   82.5771   14.1277 C.ar    1  UNL1        0.0614
     30 CL         62.0865   83.4743   15.3024 Cl      1  UNL1       -0.0821
@<TRIPOS>BOND
     1     2     1    1
     2     2    10    1
     3    10    11   ar
     4    11    12   ar
     5    12    13   ar
     6    13    14    1
     7    13    15   ar
     8    15    16    1
     9    15    17   ar
    10     2     3    1
    11     3     4    1
    12     4     5    1
    13     5     6    1
    14     6     7    1
    15     7    18    1
    16    18    19   ar
    17    19    20   ar
    18    20    23    1
    19    23    24   ar
    20    24    25   ar
    21    25    26   ar
    22    26    27    1
    23    26    28   ar
    24    28    29   ar
    25    29    30    1
    26    20    21   ar
    27    21    22   ar
    28     7     2    1
    29    22    18   ar
    30    17    10   ar
    31    29    23   ar
    32     1     8    1
    33     5     9    1
