@<TRIPOS>MOLECULE
*****
 22 23 0 0 0
SMALL
GASTEIGER

@<TRIPOS>ATOM
      1 C          64.9796   91.0368   14.2164 C.ar    1  UNL1        0.0042
      2 C          64.7116   89.6172   14.6198 C.ar    1  UNL1       -0.0020
      3 C          63.9070   88.7222   13.7246 C.ar    1  UNL1       -0.0001
      4 C          63.3703   89.2468   12.4258 C.ar    1  UNL1        0.0030
      5 C          62.5657   88.3518   11.5305 C.ar    1  UNL1        0.0369
      6 C          62.0291   88.8764   10.2318 C.ar    1  UNL1        0.1390
      7 C          62.2971   90.2961    9.8283 C.ar    1  UNL1        0.0369
      8 C          63.1017   91.1911   10.7236 C.ar    1  UNL1        0.0031
      9 C          63.6383   90.6664   12.0224 C.ar    1  UNL1       -0.0000
     10 C          64.4429   91.5614   12.9176 C.ar    1  UNL1       -0.0019
     11 C          65.7842   91.9319   15.1117 C.3     1  UNL1        0.1326
     12 O          65.0998   92.7466   16.1688 O.3     1  UNL1       -0.3801
     13 H          65.7596   93.2656   16.6549 H       1  UNL1        0.2108
     14 C          68.1435   92.2856   16.1405 C.3     1  UNL1        0.0028
     15 C          67.2732   92.0121   14.9498 C.3     1  UNL1        0.0312
     16 C          67.8921   91.8189   13.5971 C.3     1  UNL1        0.0028
     17 O          61.2245   87.9813    9.3365 O.3     1  UNL1       -0.4666
     18 C          61.4478   86.4982    9.3619 C.3     1  UNL1        0.3081
     19 C          61.7211   85.7590    8.0857 C.3     1  UNL1        0.4380
     20 F          61.9943   85.0197    6.8094 F       1  UNL1       -0.1663
     21 F          63.1959   85.8867    8.3275 F       1  UNL1       -0.1663
     22 F          60.2462   85.6312    7.8439 F       1  UNL1       -0.1663
@<TRIPOS>BOND
     1    14    15    1
     2    15    16    1
     3    15    11    1
     4    11    12    1
     5    11     1    1
     6     1     2   ar
     7     2     3   ar
     8     3     4   ar
     9     4     5   ar
    10     5     6   ar
    11     6    17    1
    12    17    18    1
    13    18    19    1
    14    19    20    1
    15    19    21    1
    16    19    22    1
    17     6     7   ar
    18     7     8   ar
    19     8     9   ar
    20     9    10   ar
    21    10     1   ar
    22     9     4   ar
    23    12    13    1
@<TRIPOS>MOLECULE
*****
 22 23 0 0 0
SMALL
GASTEIGER

@<TRIPOS>ATOM
      1 C          61.9084   89.1681   11.0549 C.ar    1  UNL1        0.0042
      2 C          62.1910   90.2361   10.0402 C.ar    1  UNL1       -0.0020
      3 C          63.2543   91.2603   10.3057 C.ar    1  UNL1       -0.0001
      4 C          64.0349   91.2166   11.5857 C.ar    1  UNL1        0.0030
      5 C          65.0982   92.2408   11.8511 C.ar    1  UNL1        0.0369
      6 C          65.8788   92.1971   13.1312 C.ar    1  UNL1        0.1390
      7 C          65.5963   91.1291   14.1459 C.ar    1  UNL1        0.0369
      8 C          64.5330   90.1048   13.8805 C.ar    1  UNL1        0.0031
      9 C          63.7523   90.1486   12.6004 C.ar    1  UNL1       -0.0000
     10 C          62.6891   89.1244   12.3349 C.ar    1  UNL1       -0.0019
     11 C          60.8452   88.1439   10.7894 C.3     1  UNL1        0.1326
     12 O          59.7137   87.9690   11.7585 O.3     1  UNL1       -0.3801
     13 H          59.1196   87.2718   11.4394 H       1  UNL1        0.2108
     14 C          62.1678   86.5375    9.2339 C.3     1  UNL1        0.0028
     15 C          60.9134   87.2946    9.5549 C.3     1  UNL1        0.0312
     16 C          59.7271   87.2025    8.6415 C.3     1  UNL1        0.0028
     17 O          66.9421   93.2213   13.3966 O.3     1  UNL1       -0.4666
     18 C          67.1507   93.7427   14.7876 C.3     1  UNL1        0.3081
     19 C          67.9463   92.9434   15.7767 C.3     1  UNL1        0.4380
     20 F          68.7418   92.1442   16.7658 F       1  UNL1       -0.1663
     21 F          69.1330   92.9910   14.8606 F       1  UNL1       -0.1663
     22 F          66.7595   92.8958   16.6928 F       1  UNL1       -0.1663
@<TRIPOS>BOND
     1    14    15    1
     2    15    16    1
     3    15    11    1
     4    11    12    1
     5    11     1    1
     6     1     2   ar
     7     2     3   ar
     8     3     4   ar
     9     4     5   ar
    10     5     6   ar
    11     6    17    1
    12    17    18    1
    13    18    19    1
    14    19    20    1
    15    19    21    1
    16    19    22    1
    17     6     7   ar
    18     7     8   ar
    19     8     9   ar
    20     9    10   ar
    21    10     1   ar
    22     9     4   ar
    23    12    13    1
@<TRIPOS>MOLECULE
*****
 22 23 0 0 0
SMALL
GASTEIGER

@<TRIPOS>ATOM
      1 C          61.1645   87.4118    9.6492 C.ar    1  UNL1        0.0042
      2 C          60.8584   87.3371   11.1157 C.ar    1  UNL1       -0.0020
      3 C          61.4335   86.2283   11.9463 C.ar    1  UNL1       -0.0001
      4 C          62.3146   85.1943   11.3104 C.ar    1  UNL1        0.0030
      5 C          62.8896   84.0855   12.1411 C.ar    1  UNL1        0.0369
      6 C          63.7707   83.0515   11.5052 C.ar    1  UNL1        0.1390
      7 C          64.0768   83.1262   10.0386 C.ar    1  UNL1        0.0369
      8 C          63.5017   84.2349    9.2080 C.ar    1  UNL1        0.0031
      9 C          62.6206   85.2690    9.8439 C.ar    1  UNL1       -0.0000
     10 C          62.0456   86.3778    9.0133 C.ar    1  UNL1       -0.0019
     11 C          60.5895   88.5206    8.8186 C.3     1  UNL1        0.1326
     12 O          61.0167   89.9380    9.0604 O.3     1  UNL1       -0.3801
     13 H          60.5536   90.5251    8.4426 H       1  UNL1        0.2108
     14 C          59.2745   89.2354    6.6949 C.3     1  UNL1        0.0028
     15 C          59.5872   88.2120    7.7461 C.3     1  UNL1        0.0312
     16 C          58.8976   86.8801    7.7248 C.3     1  UNL1        0.0028
     17 O          64.3457   81.9427   12.3358 O.3     1  UNL1       -0.4666
     18 C          63.7055   81.5740   13.6413 C.3     1  UNL1        0.3081
     19 C          62.3066   81.0329   13.6643 C.3     1  UNL1        0.4380
     20 F          60.9078   80.4919   13.6872 F       1  UNL1       -0.1663
     21 F          62.6861   80.0085   12.6364 F       1  UNL1       -0.1663
     22 F          61.9272   82.0574   14.6921 F       1  UNL1       -0.1663
@<TRIPOS>BOND
     1    14    15    1
     2    15    16    1
     3    15    11    1
     4    11    12    1
     5    11     1    1
     6     1     2   ar
     7     2     3   ar
     8     3     4   ar
     9     4     5   ar
    10     5     6   ar
    11     6    17    1
    12    17    18    1
    13    18    19    1
    14    19    20    1
    15    19    21    1
    16    19    22    1
    17     6     7   ar
    18     7     8   ar
    19     8     9   ar
    20     9    10   ar
    21    10     1   ar
    22     9     4   ar
    23    12    13    1
@<TRIPOS>MOLECULE
*****
 22 23 0 0 0
SMALL
GASTEIGER

@<TRIPOS>ATOM
      1 C          62.0672   90.1523   10.7593 C.ar    1  UNL1        0.0042
      2 C          62.2068   89.7245   12.1902 C.ar    1  UNL1       -0.0020
      3 C          63.3170   90.2778   13.0336 C.ar    1  UNL1       -0.0001
      4 C          64.2875   91.2591   12.4461 C.ar    1  UNL1        0.0030
      5 C          65.3977   91.8125   13.2894 C.ar    1  UNL1        0.0369
      6 C          66.3682   92.7937   12.7020 C.ar    1  UNL1        0.1390
      7 C          66.2286   93.2216   11.2711 C.ar    1  UNL1        0.0369
      8 C          65.1184   92.6683   10.4277 C.ar    1  UNL1        0.0031
      9 C          64.1479   91.6870   11.0152 C.ar    1  UNL1       -0.0000
     10 C          63.0377   91.1336   10.1719 C.ar    1  UNL1       -0.0019
     11 C          60.9570   89.5990    9.9160 C.3     1  UNL1        0.1326
     12 O          59.7788   90.4597    9.5681 O.3     1  UNL1       -0.3801
     13 H          59.1580   89.9527    9.0219 H       1  UNL1        0.2108
     14 C          59.8391   87.5721    8.7361 C.3     1  UNL1        0.0028
     15 C          61.0250   88.1849    9.4204 C.3     1  UNL1        0.0312
     16 C          62.2788   87.3834    9.6092 C.3     1  UNL1        0.0028
     17 O          67.4784   93.3471   13.5453 O.3     1  UNL1       -0.4666
     18 C          67.3303   93.4040   15.0370 C.3     1  UNL1        0.3081
     19 C          68.4100   92.8514   15.9195 C.3     1  UNL1        0.4380
     20 F          69.4897   92.2988   16.8021 F       1  UNL1       -0.1663
     21 F          68.9241   94.2399   16.1600 F       1  UNL1       -0.1663
     22 F          67.8959   91.4629   15.6791 F       1  UNL1       -0.1663
@<TRIPOS>BOND
     1    14    15    1
     2    15    16    1
     3    15    11    1
     4    11    12    1
     5    11     1    1
     6     1     2   ar
     7     2     3   ar
     8     3     4   ar
     9     4     5   ar
    10     5     6   ar
    11     6    17    1
    12    17    18    1
    13    18    19    1
    14    19    20    1
    15    19    21    1
    16    19    22    1
    17     6     7   ar
    18     7     8   ar
    19     8     9   ar
    20     9    10   ar
    21    10     1   ar
    22     9     4   ar
    23    12    13    1
@<TRIPOS>MOLECULE
*****
 22 23 0 0 0
SMALL
GASTEIGER

@<TRIPOS>ATOM
      1 C          63.9845   89.5647   13.7309 C.ar    1  UNL1        0.0042
      2 C          63.2106   89.4656   12.4498 C.ar    1  UNL1       -0.0020
      3 C          62.8252   88.1208   11.9085 C.ar    1  UNL1       -0.0001
      4 C          63.2137   86.8751   12.6482 C.ar    1  UNL1        0.0030
      5 C          62.8283   85.5303   12.1069 C.ar    1  UNL1        0.0369
      6 C          63.2168   84.2847   12.8466 C.ar    1  UNL1        0.1390
      7 C          63.9908   84.3837   14.1278 C.ar    1  UNL1        0.0369
      8 C          64.3762   85.7285   14.6691 C.ar    1  UNL1        0.0031
      9 C          63.9876   86.9742   13.9293 C.ar    1  UNL1       -0.0000
     10 C          64.3731   88.3190   14.4706 C.ar    1  UNL1       -0.0019
     11 C          64.3699   90.9095   14.2722 C.3     1  UNL1        0.1326
     12 O          63.5116   91.5758   15.3062 O.3     1  UNL1       -0.3801
     13 H          63.9001   92.4316   15.5462 H       1  UNL1        0.2108
     14 C          66.8809   91.5024   14.5775 C.3     1  UNL1        0.0028
     15 C          65.6137   91.5879   13.7795 C.3     1  UNL1        0.0312
     16 C          65.5902   92.3519   12.4888 C.3     1  UNL1        0.0028
     17 O          62.8314   82.9399   12.3053 O.3     1  UNL1       -0.4666
     18 C          63.0550   81.7072   13.1303 C.3     1  UNL1        0.3081
     19 C          61.8849   80.8845   13.5820 C.3     1  UNL1        0.4380
     20 F          60.7147   80.0619   14.0337 F       1  UNL1       -0.1663
     21 F          62.3256   79.7654   12.6856 F       1  UNL1       -0.1663
     22 F          61.4442   82.0036   14.4783 F       1  UNL1       -0.1663
@<TRIPOS>BOND
     1    14    15    1
     2    15    16    1
     3    15    11    1
     4    11    12    1
     5    11     1    1
     6     1     2   ar
     7     2     3   ar
     8     3     4   ar
     9     4     5   ar
    10     5     6   ar
    11     6    17    1
    12    17    18    1
    13    18    19    1
    14    19    20    1
    15    19    21    1
    16    19    22    1
    17     6     7   ar
    18     7     8   ar
    19     8     9   ar
    20     9    10   ar
    21    10     1   ar
    22     9     4   ar
    23    12    13    1
@<TRIPOS>MOLECULE
*****
 22 23 0 0 0
SMALL
GASTEIGER

@<TRIPOS>ATOM
      1 C          63.5948   89.1584   13.1160 C.ar    1  UNL1        0.0042
      2 C          64.3190   88.8559   14.3943 C.ar    1  UNL1       -0.0020
      3 C          64.5150   87.4329   14.8265 C.ar    1  UNL1       -0.0001
      4 C          63.9869   86.3126   13.9805 C.ar    1  UNL1        0.0030
      5 C          64.1830   84.8896   14.4127 C.ar    1  UNL1        0.0369
      6 C          63.6549   83.7693   13.5666 C.ar    1  UNL1        0.1390
      7 C          62.9307   84.0718   12.2883 C.ar    1  UNL1        0.0369
      8 C          62.7347   85.4947   11.8561 C.ar    1  UNL1        0.0031
      9 C          63.2628   86.6151   12.7022 C.ar    1  UNL1       -0.0000
     10 C          63.0667   88.0381   12.2700 C.ar    1  UNL1       -0.0019
     11 C          63.3988   90.5814   12.6838 C.3     1  UNL1        0.1326
     12 O          63.5471   91.6945   13.6782 O.3     1  UNL1       -0.3801
     13 H          63.3888   92.5444   13.2382 H       1  UNL1        0.2108
     14 C          64.0257   91.6449   10.3978 C.3     1  UNL1        0.0028
     15 C          63.0544   90.8912   11.2572 C.3     1  UNL1        0.0312
     16 C          61.7386   90.4473   10.6898 C.3     1  UNL1        0.0028
     17 O          63.8510   82.3463   13.9988 O.3     1  UNL1       -0.4666
     18 C          63.3229   81.2259   13.1526 C.3     1  UNL1        0.3081
     19 C          62.0381   80.5468   13.5241 C.3     1  UNL1        0.4380
     20 F          60.7533   79.8676   13.8956 F       1  UNL1       -0.1663
     21 F          61.7481   81.6364   14.5133 F       1  UNL1       -0.1663
     22 F          62.3281   79.4571   12.5349 F       1  UNL1       -0.1663
@<TRIPOS>BOND
     1    14    15    1
     2    15    16    1
     3    15    11    1
     4    11    12    1
     5    11     1    1
     6     1     2   ar
     7     2     3   ar
     8     3     4   ar
     9     4     5   ar
    10     5     6   ar
    11     6    17    1
    12    17    18    1
    13    18    19    1
    14    19    20    1
    15    19    21    1
    16    19    22    1
    17     6     7   ar
    18     7     8   ar
    19     8     9   ar
    20     9    10   ar
    21    10     1   ar
    22     9     4   ar
    23    12    13    1
@<TRIPOS>MOLECULE
*****
 22 23 0 0 0
SMALL
GASTEIGER

@<TRIPOS>ATOM
      1 C          64.0156   89.2859   13.9005 C.ar    1  UNL1        0.0042
      2 C          64.5092   88.2562   14.8731 C.ar    1  UNL1       -0.0020
      3 C          64.2921   86.7980   14.5963 C.ar    1  UNL1       -0.0001
      4 C          63.5813   86.3695   13.3469 C.ar    1  UNL1        0.0030
      5 C          63.3642   84.9114   13.0701 C.ar    1  UNL1        0.0369
      6 C          62.6534   84.4829   11.8207 C.ar    1  UNL1        0.1390
      7 C          62.1597   85.5126   10.8480 C.ar    1  UNL1        0.0369
      8 C          62.3768   86.9707   11.1248 C.ar    1  UNL1        0.0031
      9 C          63.0876   87.3992   12.3743 C.ar    1  UNL1       -0.0000
     10 C          63.3048   88.8574   12.6511 C.ar    1  UNL1       -0.0019
     11 C          64.2327   90.7440   14.1773 C.3     1  UNL1        0.1326
     12 O          63.3478   91.4622   15.1525 O.3     1  UNL1       -0.3801
     13 H          63.6214   92.3908   15.2143 H       1  UNL1        0.2108
     14 C          65.0869   92.1069   12.1370 C.3     1  UNL1        0.0028
     15 C          65.3348   91.4840   13.4789 C.3     1  UNL1        0.0312
     16 C          66.6847   91.6012   14.1223 C.3     1  UNL1        0.0028
     17 O          62.4362   83.0247   11.5439 O.3     1  UNL1       -0.4666
     18 C          63.4444   82.0152   12.0070 C.3     1  UNL1        0.3081
     19 C          63.0204   80.8871   12.9002 C.3     1  UNL1        0.4380
     20 F          62.5964   79.7591   13.7933 F       1  UNL1       -0.1663
     21 F          62.7500   80.0350   11.6957 F       1  UNL1       -0.1663
     22 F          63.2908   81.7392   14.1047 F       1  UNL1       -0.1663
@<TRIPOS>BOND
     1    14    15    1
     2    15    16    1
     3    15    11    1
     4    11    12    1
     5    11     1    1
     6     1     2   ar
     7     2     3   ar
     8     3     4   ar
     9     4     5   ar
    10     5     6   ar
    11     6    17    1
    12    17    18    1
    13    18    19    1
    14    19    20    1
    15    19    21    1
    16    19    22    1
    17     6     7   ar
    18     7     8   ar
    19     8     9   ar
    20     9    10   ar
    21    10     1   ar
    22     9     4   ar
    23    12    13    1
@<TRIPOS>MOLECULE
*****
 22 23 0 0 0
SMALL
GASTEIGER

@<TRIPOS>ATOM
      1 C          63.4435   89.2184   12.6544 C.ar    1  UNL1        0.0042
      2 C          62.6842   88.4838   11.5897 C.ar    1  UNL1       -0.0020
      3 C          62.5615   86.9901   11.6511 C.ar    1  UNL1       -0.0001
      4 C          63.1982   86.2309   12.7773 C.ar    1  UNL1        0.0030
      5 C          63.0755   84.7372   12.8387 C.ar    1  UNL1        0.0369
      6 C          63.7122   83.9781   13.9649 C.ar    1  UNL1        0.1390
      7 C          64.4715   84.7127   15.0297 C.ar    1  UNL1        0.0369
      8 C          64.5942   86.2064   14.9683 C.ar    1  UNL1        0.0031
      9 C          63.9575   86.9655   13.8420 C.ar    1  UNL1       -0.0000
     10 C          64.0801   88.4592   13.7806 C.ar    1  UNL1       -0.0019
     11 C          63.5661   90.7121   12.5930 C.3     1  UNL1        0.1326
     12 O          63.3532   91.5336   13.8298 O.3     1  UNL1       -0.3801
     13 H          63.4686   92.4730   13.6178 H       1  UNL1        0.2108
     14 C          62.9872   91.2359   10.1150 C.3     1  UNL1        0.0028
     15 C          63.9016   91.3843   11.2948 C.3     1  UNL1        0.0312
     16 C          65.1516   92.2050   11.1762 C.3     1  UNL1        0.0028
     17 O          63.5895   82.4844   14.0263 O.3     1  UNL1       -0.4666
     18 C          62.3832   81.8065   13.4472 C.3     1  UNL1        0.3081
     19 C          62.5515   80.6392   12.5203 C.3     1  UNL1        0.4380
     20 F          62.7199   79.4719   11.5934 F       1  UNL1       -0.1663
     21 F          62.6692   81.5794   11.3575 F       1  UNL1       -0.1663
     22 F          62.4338   79.6989   13.6831 F       1  UNL1       -0.1663
@<TRIPOS>BOND
     1    14    15    1
     2    15    16    1
     3    15    11    1
     4    11    12    1
     5    11     1    1
     6     1     2   ar
     7     2     3   ar
     8     3     4   ar
     9     4     5   ar
    10     5     6   ar
    11     6    17    1
    12    17    18    1
    13    18    19    1
    14    19    20    1
    15    19    21    1
    16    19    22    1
    17     6     7   ar
    18     7     8   ar
    19     8     9   ar
    20     9    10   ar
    21    10     1   ar
    22     9     4   ar
    23    12    13    1
@<TRIPOS>MOLECULE
*****
 22 23 0 0 0
SMALL
GASTEIGER

@<TRIPOS>ATOM
      1 C          63.1408   86.1461   12.4462 C.ar    1  UNL1        0.0042
      2 C          63.8240   85.8876   13.7562 C.ar    1  UNL1       -0.0020
      3 C          64.3439   87.0352   14.5703 C.ar    1  UNL1       -0.0001
      4 C          64.1807   88.4413   14.0742 C.ar    1  UNL1        0.0030
      5 C          64.7006   89.5889   14.8882 C.ar    1  UNL1        0.0369
      6 C          64.5373   90.9951   14.3921 C.ar    1  UNL1        0.1390
      7 C          63.8541   91.2536   13.0820 C.ar    1  UNL1        0.0369
      8 C          63.3341   90.1060   12.2680 C.ar    1  UNL1        0.0031
      9 C          63.4975   88.6998   12.7641 C.ar    1  UNL1       -0.0000
     10 C          62.9775   87.5522   11.9501 C.ar    1  UNL1       -0.0019
     11 C          62.6209   84.9984   11.6321 C.3     1  UNL1        0.1326
     12 O          61.5223   85.2226   10.6358 O.3     1  UNL1       -0.3801
     13 H          61.3062   84.3841   10.1987 H       1  UNL1        0.2108
     14 C          62.5625   82.6654   12.7738 C.3     1  UNL1        0.0028
     15 C          63.1995   83.6266   11.8145 C.3     1  UNL1        0.0312
     16 C          64.4152   83.2160   11.0376 C.3     1  UNL1        0.0028
     17 O          65.0573   92.1427   15.2061 O.3     1  UNL1       -0.4666
     18 C          66.3599   92.7912   14.8419 C.3     1  UNL1        0.3081
     19 C          67.3195   92.0860   13.9297 C.3     1  UNL1        0.4380
     20 F          68.2791   91.3809   13.0176 F       1  UNL1       -0.1663
     21 F          66.8549   92.9356   12.7841 F       1  UNL1       -0.1663
     22 F          67.7841   91.2364   15.0753 F       1  UNL1       -0.1663
@<TRIPOS>BOND
     1    14    15    1
     2    15    16    1
     3    15    11    1
     4    11    12    1
     5    11     1    1
     6     1     2   ar
     7     2     3   ar
     8     3     4   ar
     9     4     5   ar
    10     5     6   ar
    11     6    17    1
    12    17    18    1
    13    18    19    1
    14    19    20    1
    15    19    21    1
    16    19    22    1
    17     6     7   ar
    18     7     8   ar
    19     8     9   ar
    20     9    10   ar
    21    10     1   ar
    22     9     4   ar
    23    12    13    1
