@<TRIPOS>MOLECULE
*****
 39 41 0 0 0
SMALL
GASTEIGER

@<TRIPOS>ATOM
      1 C          62.9750   87.9956   12.4437 C.2     1  UNL1        0.2491
      2 O          63.5128   86.6515   12.8364 O.2     1  UNL1       -0.2699
      3 N          61.8012   88.0915   11.5148 N.am    1  UNL1       -0.2776
      4 C          64.5829   91.6211   12.5873 C.ar    1  UNL1        0.1723
      5 C          63.9468   90.3729   12.0512 C.ar    1  UNL1        0.0446
      6 C          63.6112   89.2438   12.9798 C.ar    1  UNL1        0.0568
      7 C          63.9118   89.3627   14.4446 C.ar    1  UNL1        0.0078
      8 C          64.5479   90.6109   14.9806 C.ar    1  UNL1        0.0402
      9 C          64.8835   91.7400   14.0520 C.ar    1  UNL1        0.1724
     10 O          65.5196   92.9882   14.5881 O.3     1  UNL1       -0.4684
     11 C          67.0021   93.1845   14.4706 C.3     1  UNL1        0.2526
     12 O          64.9184   92.7502   11.6586 O.3     1  UNL1       -0.4723
     13 C          65.7495   92.4944   10.4364 C.3     1  UNL1        0.2082
     14 C          67.2361   92.3372   10.5597 C.3     1  UNL1        0.0794
     15 C          68.1388   92.8791    9.4912 C.3     1  UNL1        0.1461
     16 C          67.6056   95.3012    8.7173 C.3     1  UNL1        0.1741
     17 O          68.4794   94.3397    9.4668 O.3     1  UNL1       -0.3510
     18 C          61.2635   89.4357   11.1221 C.3     1  UNL1        0.0757
     19 C          61.7817   90.1207    9.8924 C.3     1  UNL1        0.0215
     20 C          60.2075   90.0948   11.9591 C.3     1  UNL1        0.0215
     21 C          61.1650   86.8434   10.9787 C.3     1  UNL1        0.0967
     22 C          61.8242   86.0842    9.8656 C.3     1  UNL1        0.0550
     23 C          61.6829   86.3688    8.3996 C.3     1  UNL1        0.0720
     24 N          62.5118   85.3676    7.6510 N.3     1  UNL1       -0.2960
     25 C          63.1655   84.4642    8.6543 C.3     1  UNL1        0.0886
     26 C          62.7406   84.9071   10.0229 C.3     1  UNL1        0.0934
     27 H          63.2245   85.8490    7.1026 H       1  UNL1        0.1233
     28 N          63.1586   84.2826   11.3211 N.am    1  UNL1       -0.2708
     29 C          64.1064   83.1201   11.3233 C.2     1  UNL1        0.4016
     30 O          64.6363   82.5819   10.0272 O.2     1  UNL1       -0.2264
     31 H          62.8108   84.6357   12.1717 H       1  UNL1        0.1527
     32 O          64.5244   82.4955   12.6214 O.3     1  UNL1       -0.4347
     33 C          63.5932   82.5147   13.7972 C.3     1  UNL1        0.2100
     34 C          63.5570   83.7076   14.7059 C.3     1  UNL1        0.0439
     35 C          64.7439   84.6207   14.7925 C.3     1  UNL1        0.0037
     36 C          64.7078   85.8136   15.7011 C.3     1  UNL1        0.0001
     37 C          63.4848   86.0934   16.5233 C.3     1  UNL1        0.0000
     38 C          62.2978   85.1803   16.4367 C.3     1  UNL1        0.0001
     39 C          62.3340   83.9874   15.5280 C.3     1  UNL1        0.0037
@<TRIPOS>BOND
     1    16    17    1
     2    17    15    1
     3    15    14    1
     4    14    13    1
     5    13    12    1
     6    12     4    1
     7     4     5   ar
     8     5     6   ar
     9     6     1    1
    10     1     2    2
    11     1     3   am
    12     3    21    1
    13    22    21    1
    14    22    23    1
    15    23    24    1
    16    24    25    1
    17    25    26    1
    18    26    28    1
    19    28    29   am
    20    29    30    2
    21    29    32    1
    22    32    33    1
    23    33    34    1
    24    34    35    1
    25    35    36    1
    26    36    37    1
    27    37    38    1
    28    38    39    1
    29     3    18    1
    30    18    19    1
    31    18    20    1
    32     6     7   ar
    33     7     8   ar
    34     8     9   ar
    35     9    10    1
    36    10    11    1
    37     9     4   ar
    38    26    22    1
    39    39    34    1
    40    24    27    1
    41    28    31    1
@<TRIPOS>MOLECULE
*****
 39 41 0 0 0
SMALL
GASTEIGER

@<TRIPOS>ATOM
      1 C          63.1871   85.7286   12.0817 C.2     1  UNL1        0.2491
      2 O          63.3379   87.0778   12.7196 O.2     1  UNL1       -0.2699
      3 N          63.6380   84.4988   12.8126 N.am    1  UNL1       -0.2776
      4 C          60.6401   86.0933    9.0601 C.ar    1  UNL1        0.1723
      5 C          61.2418   86.2127   10.4289 C.ar    1  UNL1        0.0446
      6 C          62.5854   85.6091   10.7128 C.ar    1  UNL1        0.0568
      7 C          63.3272   84.8862    9.6280 C.ar    1  UNL1        0.0078
      8 C          62.7255   84.7668    8.2592 C.ar    1  UNL1        0.0402
      9 C          61.3819   85.3703    7.9753 C.ar    1  UNL1        0.1724
     10 O          60.7802   85.2509    6.6064 O.3     1  UNL1       -0.4684
     11 C          61.3832   84.3151    5.6011 C.3     1  UNL1        0.2526
     12 O          59.2965   86.6968    8.7762 O.3     1  UNL1       -0.4723
     13 C          59.0990   87.5474    7.5566 C.3     1  UNL1        0.2082
     14 C          59.5740   88.9702    7.5496 C.3     1  UNL1        0.0794
     15 C          59.5445   89.7644    6.2773 C.3     1  UNL1        0.1461
     16 C          58.3241   91.6161    4.9239 C.3     1  UNL1        0.1741
     17 O          58.2729   90.4260    5.8355 O.3     1  UNL1       -0.3510
     18 C          63.4872   83.1495   12.1747 C.3     1  UNL1        0.0757
     19 C          64.5872   82.5984   11.3167 C.3     1  UNL1        0.0215
     20 C          62.2363   82.3515   12.3949 C.3     1  UNL1        0.0215
     21 C          64.2397   84.6182   14.1814 C.3     1  UNL1        0.0967
     22 C          63.4513   85.2402   15.2957 C.3     1  UNL1        0.0550
     23 C          62.4178   84.5508   16.1362 C.3     1  UNL1        0.0720
     24 N          61.8857   85.5454   17.1250 N.3     1  UNL1       -0.2960
     25 C          62.5904   86.8495   16.8955 C.3     1  UNL1        0.0886
     26 C          63.5579   86.6609   15.7649 C.3     1  UNL1        0.0934
     27 H          62.0634   85.2184   18.0747 H       1  UNL1        0.1233
     28 N          64.4717   87.7090   15.2024 N.am    1  UNL1       -0.2708
     29 C          64.0510   89.1487   15.2015 C.2     1  UNL1        0.4016
     30 O          62.7164   89.5405   15.7632 O.2     1  UNL1       -0.2264
     31 H          65.3476   87.4519   14.8337 H       1  UNL1        0.1527
     32 O          64.9648   90.1969   14.6390 O.3     1  UNL1       -0.4347
     33 C          64.4001   91.3336   13.8398 C.3     1  UNL1        0.2100
     34 C          63.6935   91.0619   12.5448 C.3     1  UNL1        0.0439
     35 C          62.4825   90.1770   12.5225 C.3     1  UNL1        0.0037
     36 C          61.7758   89.9052   11.2276 C.3     1  UNL1        0.0001
     37 C          62.2802   90.5182    9.9549 C.3     1  UNL1        0.0000
     38 C          63.4913   91.4031    9.9772 C.3     1  UNL1        0.0001
     39 C          64.1979   91.6749   11.2721 C.3     1  UNL1        0.0037
@<TRIPOS>BOND
     1    16    17    1
     2    17    15    1
     3    15    14    1
     4    14    13    1
     5    13    12    1
     6    12     4    1
     7     4     5   ar
     8     5     6   ar
     9     6     1    1
    10     1     2    2
    11     1     3   am
    12     3    21    1
    13    22    21    1
    14    22    23    1
    15    23    24    1
    16    24    25    1
    17    25    26    1
    18    26    28    1
    19    28    29   am
    20    29    30    2
    21    29    32    1
    22    32    33    1
    23    33    34    1
    24    34    35    1
    25    35    36    1
    26    36    37    1
    27    37    38    1
    28    38    39    1
    29     3    18    1
    30    18    19    1
    31    18    20    1
    32     6     7   ar
    33     7     8   ar
    34     8     9   ar
    35     9    10    1
    36    10    11    1
    37     9     4   ar
    38    26    22    1
    39    39    34    1
    40    24    27    1
    41    28    31    1
@<TRIPOS>MOLECULE
*****
 39 41 0 0 0
SMALL
GASTEIGER

@<TRIPOS>ATOM
      1 C          63.1488   85.7054   12.0038 C.2     1  UNL1        0.2491
      2 O          63.2695   87.0503   12.6570 O.2     1  UNL1       -0.2699
      3 N          63.5959   84.4740   12.7343 N.am    1  UNL1       -0.2776
      4 C          60.6518   86.0324    8.9365 C.ar    1  UNL1        0.1723
      5 C          61.2196   86.1459   10.3202 C.ar    1  UNL1        0.0446
      6 C          62.5810   85.5919   10.6200 C.ar    1  UNL1        0.0568
      7 C          63.3744   84.9244    9.5361 C.ar    1  UNL1        0.0078
      8 C          62.8066   84.8109    8.1525 C.ar    1  UNL1        0.0402
      9 C          61.4453   85.3649    7.8527 C.ar    1  UNL1        0.1724
     10 O          60.8774   85.2514    6.4689 O.3     1  UNL1       -0.4684
     11 C          61.4311   84.2377    5.5118 C.3     1  UNL1        0.2526
     12 O          59.2905   86.5864    8.6367 O.3     1  UNL1       -0.4723
     13 C          59.1532   87.9504    8.0280 C.3     1  UNL1        0.2082
     14 C          60.1978   88.9955    8.2862 C.3     1  UNL1        0.0794
     15 C          60.2722   89.6667    9.6256 C.3     1  UNL1        0.1461
     16 C          59.6247   89.7479   12.1404 C.3     1  UNL1        0.1741
     17 O          59.5723   89.0629   10.8070 O.3     1  UNL1       -0.3510
     18 C          63.4752   83.1290   12.0811 C.3     1  UNL1        0.0757
     19 C          64.5706   82.6285   11.1869 C.3     1  UNL1        0.0215
     20 C          62.2591   82.2847   12.3220 C.3     1  UNL1        0.0215
     21 C          64.1637   84.5874   14.1180 C.3     1  UNL1        0.0967
     22 C          63.3641   85.2415   15.2056 C.3     1  UNL1        0.0550
     23 C          62.2083   84.6293   15.9400 C.3     1  UNL1        0.0720
     24 N          61.7097   85.6321   16.9380 N.3     1  UNL1       -0.2960
     25 C          62.5574   86.8640   16.8203 C.3     1  UNL1        0.0886
     26 C          63.5798   86.6226   15.7496 C.3     1  UNL1        0.0934
     27 H          61.7845   85.2491   17.8804 H       1  UNL1        0.1233
     28 N          64.6331   87.5921   15.3017 N.am    1  UNL1       -0.2708
     29 C          64.2626   89.0124   14.9928 C.2     1  UNL1        0.4016
     30 O          62.8386   89.4632   15.1318 O.2     1  UNL1       -0.2264
     31 H          65.5676   87.2962   15.2104 H       1  UNL1        0.1527
     32 O          65.3158   89.9819   14.5449 O.3     1  UNL1       -0.4347
     33 C          64.9906   91.4415   14.4279 C.3     1  UNL1        0.2100
     34 C          65.2236   92.1604   13.1322 C.3     1  UNL1        0.0439
     35 C          64.5192   91.7092   11.8871 C.3     1  UNL1        0.0037
     36 C          64.7521   92.4280   10.5912 C.3     1  UNL1        0.0001
     37 C          65.6894   93.5980   10.5406 C.3     1  UNL1        0.0000
     38 C          66.3939   94.0492   11.7858 C.3     1  UNL1        0.0001
     39 C          66.1609   93.3303   13.0815 C.3     1  UNL1        0.0037
@<TRIPOS>BOND
     1    16    17    1
     2    17    15    1
     3    15    14    1
     4    14    13    1
     5    13    12    1
     6    12     4    1
     7     4     5   ar
     8     5     6   ar
     9     6     1    1
    10     1     2    2
    11     1     3   am
    12     3    21    1
    13    22    21    1
    14    22    23    1
    15    23    24    1
    16    24    25    1
    17    25    26    1
    18    26    28    1
    19    28    29   am
    20    29    30    2
    21    29    32    1
    22    32    33    1
    23    33    34    1
    24    34    35    1
    25    35    36    1
    26    36    37    1
    27    37    38    1
    28    38    39    1
    29     3    18    1
    30    18    19    1
    31    18    20    1
    32     6     7   ar
    33     7     8   ar
    34     8     9   ar
    35     9    10    1
    36    10    11    1
    37     9     4   ar
    38    26    22    1
    39    39    34    1
    40    24    27    1
    41    28    31    1
@<TRIPOS>MOLECULE
*****
 39 41 0 0 0
SMALL
GASTEIGER

@<TRIPOS>ATOM
      1 C          62.3724   85.5293   11.7451 C.2     1  UNL1        0.2491
      2 O          62.1413   85.6271   13.2239 O.2     1  UNL1       -0.2699
      3 N          63.2528   84.4473   11.1936 N.am    1  UNL1       -0.2776
      4 C          61.4221   88.9540    9.9792 C.ar    1  UNL1        0.1723
      5 C          62.0713   87.9698   10.9065 C.ar    1  UNL1        0.0446
      6 C          61.7232   86.5135   10.8178 C.ar    1  UNL1        0.0568
      7 C          60.7258   86.0413    9.8018 C.ar    1  UNL1        0.0078
      8 C          60.0766   87.0255    8.8745 C.ar    1  UNL1        0.0402
      9 C          60.4248   88.4818    8.9632 C.ar    1  UNL1        0.1724
     10 O          59.7755   89.4660    8.0358 O.3     1  UNL1       -0.4684
     11 C          59.2139   89.0028    6.7243 C.3     1  UNL1        0.2526
     12 O          61.7703   90.4103   10.0679 O.3     1  UNL1       -0.4723
     13 C          63.1913   90.8287   10.3034 C.3     1  UNL1        0.2082
     14 C          63.6379   91.2263   11.6791 C.3     1  UNL1        0.0794
     15 C          64.8969   92.0220   11.8582 C.3     1  UNL1        0.1461
     16 C          66.6761   92.6695   13.6372 C.3     1  UNL1        0.1741
     17 O          65.2424   92.5861   13.2045 O.3     1  UNL1       -0.3510
     18 C          63.4840   84.3495    9.7147 C.3     1  UNL1        0.0757
     19 C          63.8629   83.0347    9.1001 C.3     1  UNL1        0.0215
     20 C          63.3362   85.5666    8.8504 C.3     1  UNL1        0.0215
     21 C          63.9021   83.4632   12.1208 C.3     1  UNL1        0.0967
     22 C          63.1689   82.2193   12.5273 C.3     1  UNL1        0.0550
     23 C          63.2800   80.8757   11.8699 C.3     1  UNL1        0.0720
     24 N          62.3756   79.9267   12.5989 N.3     1  UNL1       -0.2960
     25 C          61.7055   80.6838   13.7069 C.3     1  UNL1        0.0886
     26 C          62.1957   82.1007   13.6627 C.3     1  UNL1        0.0934
     27 H          62.9214   79.1570   12.9863 H       1  UNL1        0.1233
     28 N          61.7850   83.2052   14.5909 N.am    1  UNL1       -0.2708
     29 C          62.7645   83.7507   15.5873 C.2     1  UNL1        0.4016
     30 O          64.1548   83.1918   15.6556 O.2     1  UNL1       -0.2264
     31 H          60.8725   83.5720   14.5460 H       1  UNL1        0.1527
     32 O          62.3537   84.8552   16.5154 O.3     1  UNL1       -0.4347
     33 C          63.3776   85.8247   17.0269 C.3     1  UNL1        0.2100
     34 C          63.5479   87.1572   16.3594 C.3     1  UNL1        0.0439
     35 C          63.0302   88.3995   17.0218 C.3     1  UNL1        0.0037
     36 C          63.2005   89.7320   16.3544 C.3     1  UNL1        0.0001
     37 C          63.8885   89.8223   15.0246 C.3     1  UNL1        0.0000
     38 C          64.4063   88.5799   14.3622 C.3     1  UNL1        0.0001
     39 C          64.2360   87.2475   15.0296 C.3     1  UNL1        0.0037
@<TRIPOS>BOND
     1    16    17    1
     2    17    15    1
     3    15    14    1
     4    14    13    1
     5    13    12    1
     6    12     4    1
     7     4     5   ar
     8     5     6   ar
     9     6     1    1
    10     1     2    2
    11     1     3   am
    12     3    21    1
    13    22    21    1
    14    22    23    1
    15    23    24    1
    16    24    25    1
    17    25    26    1
    18    26    28    1
    19    28    29   am
    20    29    30    2
    21    29    32    1
    22    32    33    1
    23    33    34    1
    24    34    35    1
    25    35    36    1
    26    36    37    1
    27    37    38    1
    28    38    39    1
    29     3    18    1
    30    18    19    1
    31    18    20    1
    32     6     7   ar
    33     7     8   ar
    34     8     9   ar
    35     9    10    1
    36    10    11    1
    37     9     4   ar
    38    26    22    1
    39    39    34    1
    40    24    27    1
    41    28    31    1
@<TRIPOS>MOLECULE
*****
 39 41 0 0 0
SMALL
GASTEIGER

@<TRIPOS>ATOM
      1 C          63.2077   86.2805   12.2009 C.2     1  UNL1        0.2491
      2 O          63.3355   87.6920   12.6921 O.2     1  UNL1       -0.2699
      3 N          63.7340   85.1471   13.0306 N.am    1  UNL1       -0.2776
      4 C          60.5772   86.3515    9.2301 C.ar    1  UNL1        0.1723
      5 C          61.2314   86.6297   10.5509 C.ar    1  UNL1        0.0446
      6 C          62.5536   86.0024   10.8800 C.ar    1  UNL1        0.0568
      7 C          63.2216   85.0969    9.8881 C.ar    1  UNL1        0.0078
      8 C          62.5675   84.8188    8.5673 C.ar    1  UNL1        0.0402
      9 C          61.2453   85.4461    8.2382 C.ar    1  UNL1        0.1724
     10 O          60.5912   85.1679    6.9173 O.3     1  UNL1       -0.4684
     11 C          61.3057   84.3475    5.8846 C.3     1  UNL1        0.2526
     12 O          59.2550   86.9789    8.9010 O.3     1  UNL1       -0.4723
     13 C          59.0261   87.5787    7.5454 C.3     1  UNL1        0.2082
     14 C          59.6021   88.9234    7.2133 C.3     1  UNL1        0.0794
     15 C          58.8026   89.9032    6.4065 C.3     1  UNL1        0.1461
     16 C          58.8089   91.9119    4.7588 C.3     1  UNL1        0.1741
     17 O          59.4563   90.6697    5.2952 O.3     1  UNL1       -0.3510
     18 C          63.6061   83.7356   12.5394 C.3     1  UNL1        0.0757
     19 C          64.7031   83.1249   11.7186 C.3     1  UNL1        0.0215
     20 C          62.3814   82.9348   12.8690 C.3     1  UNL1        0.0215
     21 C          64.3880   85.4253   14.3515 C.3     1  UNL1        0.0967
     22 C          63.5483   85.7587   15.5489 C.3     1  UNL1        0.0550
     23 C          62.7781   84.7807   16.3856 C.3     1  UNL1        0.0720
     24 N          62.0850   85.5462   17.4736 N.3     1  UNL1       -0.2960
     25 C          62.4270   86.9975   17.3092 C.3     1  UNL1        0.0886
     26 C          63.3313   87.1288   16.1197 C.3     1  UNL1        0.0934
     27 H          62.4029   85.2168   18.3851 H       1  UNL1        0.1233
     28 N          63.9160   88.4059   15.5934 N.am    1  UNL1       -0.2708
     29 C          63.0605   89.6330   15.4831 C.2     1  UNL1        0.4016
     30 O          61.6201   89.5831   15.8992 O.2     1  UNL1       -0.2264
     31 H          64.8613   88.4388   15.3204 H       1  UNL1        0.1527
     32 O          63.6452   90.9102   14.9568 O.3     1  UNL1       -0.4347
     33 C          64.8714   90.8740   14.0936 C.3     1  UNL1        0.2100
     34 C          66.1121   91.5997   14.5225 C.3     1  UNL1        0.0439
     35 C          66.1361   92.3375   15.8282 C.3     1  UNL1        0.0037
     36 C          67.3768   93.0632   16.2571 C.3     1  UNL1        0.0001
     37 C          68.5937   93.0511   15.3802 C.3     1  UNL1        0.0000
     38 C          68.5698   92.3133   14.0743 C.3     1  UNL1        0.0001
     39 C          67.3290   91.5877   13.6455 C.3     1  UNL1        0.0037
@<TRIPOS>BOND
     1    16    17    1
     2    17    15    1
     3    15    14    1
     4    14    13    1
     5    13    12    1
     6    12     4    1
     7     4     5   ar
     8     5     6   ar
     9     6     1    1
    10     1     2    2
    11     1     3   am
    12     3    21    1
    13    22    21    1
    14    22    23    1
    15    23    24    1
    16    24    25    1
    17    25    26    1
    18    26    28    1
    19    28    29   am
    20    29    30    2
    21    29    32    1
    22    32    33    1
    23    33    34    1
    24    34    35    1
    25    35    36    1
    26    36    37    1
    27    37    38    1
    28    38    39    1
    29     3    18    1
    30    18    19    1
    31    18    20    1
    32     6     7   ar
    33     7     8   ar
    34     8     9   ar
    35     9    10    1
    36    10    11    1
    37     9     4   ar
    38    26    22    1
    39    39    34    1
    40    24    27    1
    41    28    31    1
@<TRIPOS>MOLECULE
*****
 39 41 0 0 0
SMALL
GASTEIGER

@<TRIPOS>ATOM
      1 C          62.2096   88.5640   11.5901 C.2     1  UNL1        0.2491
      2 O          62.7506   87.2173   11.9693 O.2     1  UNL1       -0.2699
      3 N          60.8431   88.6793   10.9825 N.am    1  UNL1       -0.2776
      4 C          64.1809   91.4663   13.4450 C.ar    1  UNL1        0.1723
      5 C          63.3554   90.2350   13.2165 C.ar    1  UNL1        0.0446
      6 C          63.0352   89.7954   11.8186 C.ar    1  UNL1        0.0568
      7 C          63.5405   90.5872   10.6491 C.ar    1  UNL1        0.0078
      8 C          64.3660   91.8185   10.8776 C.ar    1  UNL1        0.0402
      9 C          64.6862   92.2581   12.2755 C.ar    1  UNL1        0.1724
     10 O          65.5118   93.4895   12.5040 O.3     1  UNL1       -0.4684
     11 C          66.2670   94.1081   11.3651 C.3     1  UNL1        0.2526
     12 O          64.5011   91.9059   14.8429 O.3     1  UNL1       -0.4723
     13 C          65.8896   91.7340   15.3837 C.3     1  UNL1        0.2082
     14 C          66.9661   91.1531   14.5155 C.3     1  UNL1        0.0794
     15 C          68.1867   91.9625   14.1915 C.3     1  UNL1        0.1461
     16 C          68.9183   93.7696   15.9088 C.3     1  UNL1        0.1741
     17 O          68.2655   93.4009   14.6096 O.3     1  UNL1       -0.3510
     18 C          60.3021   90.0260   10.6033 C.3     1  UNL1        0.0757
     19 C          59.6228   90.8787   11.6336 C.3     1  UNL1        0.0215
     20 C          60.4404   90.5201    9.1937 C.3     1  UNL1        0.0215
     21 C          60.0175   87.4480   10.7540 C.3     1  UNL1        0.0967
     22 C          59.9755   86.8146    9.3949 C.3     1  UNL1        0.0550
     23 C          58.9923   87.1277    8.3063 C.3     1  UNL1        0.0720
     24 N          59.3185   86.2635    7.1244 N.3     1  UNL1       -0.2960
     25 C          60.5034   85.4164    7.4826 C.3     1  UNL1        0.0886
     26 C          60.9095   85.7570    8.8859 C.3     1  UNL1        0.0934
     27 H          59.5419   86.8484    6.3191 H       1  UNL1        0.1233
     28 N          62.0494   85.1470    9.6465 N.am    1  UNL1       -0.2708
     29 C          63.2095   84.5490    8.9074 C.2     1  UNL1        0.4016
     30 O          63.2299   84.5609    7.4076 O.2     1  UNL1       -0.2264
     31 H          62.0360   85.1391   10.6309 H       1  UNL1        0.1527
     32 O          64.3494   83.9390    9.6681 O.3     1  UNL1       -0.4347
     33 C          64.1676   82.6227   10.3640 C.3     1  UNL1        0.2100
     34 C          63.5356   82.5741   11.7235 C.3     1  UNL1        0.0439
     35 C          63.6497   83.7511   12.6462 C.3     1  UNL1        0.0037
     36 C          63.0176   83.7026   14.0057 C.3     1  UNL1        0.0001
     37 C          62.2715   82.4768   14.4424 C.3     1  UNL1        0.0000
     38 C          62.1574   81.2996   13.5197 C.3     1  UNL1        0.0001
     39 C          62.7894   81.3483   12.1602 C.3     1  UNL1        0.0037
@<TRIPOS>BOND
     1    16    17    1
     2    17    15    1
     3    15    14    1
     4    14    13    1
     5    13    12    1
     6    12     4    1
     7     4     5   ar
     8     5     6   ar
     9     6     1    1
    10     1     2    2
    11     1     3   am
    12     3    21    1
    13    22    21    1
    14    22    23    1
    15    23    24    1
    16    24    25    1
    17    25    26    1
    18    26    28    1
    19    28    29   am
    20    29    30    2
    21    29    32    1
    22    32    33    1
    23    33    34    1
    24    34    35    1
    25    35    36    1
    26    36    37    1
    27    37    38    1
    28    38    39    1
    29     3    18    1
    30    18    19    1
    31    18    20    1
    32     6     7   ar
    33     7     8   ar
    34     8     9   ar
    35     9    10    1
    36    10    11    1
    37     9     4   ar
    38    26    22    1
    39    39    34    1
    40    24    27    1
    41    28    31    1
@<TRIPOS>MOLECULE
*****
 39 41 0 0 0
SMALL
GASTEIGER

@<TRIPOS>ATOM
      1 C          62.8115   87.8571   12.2533 C.2     1  UNL1        0.2491
      2 O          63.3538   86.5184   12.6579 O.2     1  UNL1       -0.2699
      3 N          61.5812   87.9410   11.3993 N.am    1  UNL1       -0.2776
      4 C          64.3052   91.5338   12.2169 C.ar    1  UNL1        0.1723
      5 C          63.6173   90.2789   11.7675 C.ar    1  UNL1        0.0446
      6 C          63.4995   89.1121   12.7027 C.ar    1  UNL1        0.0568
      7 C          64.0698   89.2001   14.0873 C.ar    1  UNL1        0.0078
      8 C          64.7577   90.4549   14.5367 C.ar    1  UNL1        0.0402
      9 C          64.8755   91.6218   13.6015 C.ar    1  UNL1        0.1724
     10 O          65.5635   92.8767   14.0509 O.3     1  UNL1       -0.4684
     11 C          66.6627   92.8059   15.0690 C.3     1  UNL1        0.2526
     12 O          64.4230   92.7006   11.2817 O.3     1  UNL1       -0.4723
     13 C          65.6790   92.9007   10.4866 C.3     1  UNL1        0.2082
     14 C          66.5386   94.1051   10.7327 C.3     1  UNL1        0.0794
     15 C          67.5146   94.5564    9.6867 C.3     1  UNL1        0.1461
     16 C          68.9119   92.4265    9.1757 C.3     1  UNL1        0.1741
     17 O          68.8448   93.8753    9.5586 O.3     1  UNL1       -0.3510
     18 C          61.0389   89.2798   10.9947 C.3     1  UNL1        0.0757
     19 C          60.0584   89.9904   11.8799 C.3     1  UNL1        0.0215
     20 C          61.4772   89.9079    9.7050 C.3     1  UNL1        0.0215
     21 C          60.8932   86.6862   10.9499 C.3     1  UNL1        0.0967
     22 C          60.7851   86.3729    9.4870 C.3     1  UNL1        0.0550
     23 C          59.6067   86.6675    8.6069 C.3     1  UNL1        0.0720
     24 N          59.9298   86.1866    7.2233 N.3     1  UNL1       -0.2960
     25 C          61.3079   85.5948    7.2482 C.3     1  UNL1        0.0886
     26 C          61.8365   85.7099    8.6472 C.3     1  UNL1        0.0934
     27 H          59.9008   86.9689    6.5694 H       1  UNL1        0.1233
     28 N          63.1805   85.2439    9.1230 N.am    1  UNL1       -0.2708
     29 C          63.2776   84.1276   10.1201 C.2     1  UNL1        0.4016
     30 O          62.0305   83.4771   10.6416 O.2     1  UNL1       -0.2264
     31 H          63.9990   85.6707    8.7808 H       1  UNL1        0.1527
     32 O          64.6216   83.6615   10.5959 O.3     1  UNL1       -0.4347
     33 C          64.7367   82.4010   11.4008 C.3     1  UNL1        0.2100
     34 C          63.7117   82.0845   12.4493 C.3     1  UNL1        0.0439
     35 C          62.9274   80.8084   12.3703 C.3     1  UNL1        0.0037
     36 C          61.9024   80.4917   13.4187 C.3     1  UNL1        0.0001
     37 C          61.6618   81.4513   14.5462 C.3     1  UNL1        0.0000
     38 C          62.4462   82.7276   14.6253 C.3     1  UNL1        0.0001
     39 C          63.4712   83.0441   13.5768 C.3     1  UNL1        0.0037
@<TRIPOS>BOND
     1    16    17    1
     2    17    15    1
     3    15    14    1
     4    14    13    1
     5    13    12    1
     6    12     4    1
     7     4     5   ar
     8     5     6   ar
     9     6     1    1
    10     1     2    2
    11     1     3   am
    12     3    21    1
    13    22    21    1
    14    22    23    1
    15    23    24    1
    16    24    25    1
    17    25    26    1
    18    26    28    1
    19    28    29   am
    20    29    30    2
    21    29    32    1
    22    32    33    1
    23    33    34    1
    24    34    35    1
    25    35    36    1
    26    36    37    1
    27    37    38    1
    28    38    39    1
    29     3    18    1
    30    18    19    1
    31    18    20    1
    32     6     7   ar
    33     7     8   ar
    34     8     9   ar
    35     9    10    1
    36    10    11    1
    37     9     4   ar
    38    26    22    1
    39    39    34    1
    40    24    27    1
    41    28    31    1
@<TRIPOS>MOLECULE
*****
 39 41 0 0 0
SMALL
GASTEIGER

@<TRIPOS>ATOM
      1 C          62.0899   88.3848   11.6525 C.2     1  UNL1        0.2491
      2 O          62.5371   86.9875   11.9646 O.2     1  UNL1       -0.2699
      3 N          60.7573   88.6187   11.0049 N.am    1  UNL1       -0.2776
      4 C          64.3827   90.8787   13.7198 C.ar    1  UNL1        0.1723
      5 C          63.4973   89.7153   13.3843 C.ar    1  UNL1        0.0446
      6 C          62.9753   89.5482   11.9880 C.ar    1  UNL1        0.0568
      7 C          63.3387   90.5446   10.9272 C.ar    1  UNL1        0.0078
      8 C          64.2241   91.7079   11.2628 C.ar    1  UNL1        0.0402
      9 C          64.7461   91.8750   12.6591 C.ar    1  UNL1        0.1724
     10 O          65.6315   93.0384   12.9946 O.3     1  UNL1       -0.4684
     11 C          66.1118   93.9534   11.9073 C.3     1  UNL1        0.2526
     12 O          64.9047   91.0457   15.1161 O.3     1  UNL1       -0.4723
     13 C          63.9479   91.1955   16.2616 C.3     1  UNL1        0.2082
     14 C          63.0166   90.0732   16.6125 C.3     1  UNL1        0.0794
     15 C          63.4895   88.6521   16.5290 C.3     1  UNL1        0.1461
     16 C          62.6712   86.6736   18.0007 C.3     1  UNL1        0.1741
     17 O          62.5292   87.5264   16.7749 O.3     1  UNL1       -0.3510
     18 C          60.3101   90.0162   10.6927 C.3     1  UNL1        0.0757
     19 C          60.6117   90.6184    9.3525 C.3     1  UNL1        0.0215
     20 C          59.5613   90.8112   11.7209 C.3     1  UNL1        0.0215
     21 C          59.8719   87.4554   10.6694 C.3     1  UNL1        0.0967
     22 C          59.8913   86.8721    9.2876 C.3     1  UNL1        0.0550
     23 C          58.9525   87.2196    8.1705 C.3     1  UNL1        0.0720
     24 N          59.3339   86.4011    6.9728 N.3     1  UNL1       -0.2960
     25 C          60.5085   85.5477    7.3496 C.3     1  UNL1        0.0886
     26 C          60.8530   85.8388    8.7802 C.3     1  UNL1        0.0934
     27 H          59.5869   87.0163    6.1995 H       1  UNL1        0.1233
     28 N          61.9641   85.2073    9.5655 N.am    1  UNL1       -0.2708
     29 C          63.1318   84.5930    8.8521 C.2     1  UNL1        0.4016
     30 O          63.1884   84.6100    7.3532 O.2     1  UNL1       -0.2264
     31 H          61.9269   85.1962   10.5492 H       1  UNL1        0.1527
     32 O          64.2429   83.9616    9.6375 O.3     1  UNL1       -0.4347
     33 C          64.0479   82.6108   10.2598 C.3     1  UNL1        0.2100
     34 C          63.3966   82.4920   11.6058 C.3     1  UNL1        0.0439
     35 C          62.6915   81.2247   11.9887 C.3     1  UNL1        0.0037
     36 C          62.0402   81.1059   13.3347 C.3     1  UNL1        0.0001
     37 C          62.0941   82.2545   14.2979 C.3     1  UNL1        0.0000
     38 C          62.7992   83.5219   13.9150 C.3     1  UNL1        0.0001
     39 C          63.4505   83.6407   12.5690 C.3     1  UNL1        0.0037
@<TRIPOS>BOND
     1    16    17    1
     2    17    15    1
     3    15    14    1
     4    14    13    1
     5    13    12    1
     6    12     4    1
     7     4     5   ar
     8     5     6   ar
     9     6     1    1
    10     1     2    2
    11     1     3   am
    12     3    21    1
    13    22    21    1
    14    22    23    1
    15    23    24    1
    16    24    25    1
    17    25    26    1
    18    26    28    1
    19    28    29   am
    20    29    30    2
    21    29    32    1
    22    32    33    1
    23    33    34    1
    24    34    35    1
    25    35    36    1
    26    36    37    1
    27    37    38    1
    28    38    39    1
    29     3    18    1
    30    18    19    1
    31    18    20    1
    32     6     7   ar
    33     7     8   ar
    34     8     9   ar
    35     9    10    1
    36    10    11    1
    37     9     4   ar
    38    26    22    1
    39    39    34    1
    40    24    27    1
    41    28    31    1
@<TRIPOS>MOLECULE
*****
 39 41 0 0 0
SMALL
GASTEIGER

@<TRIPOS>ATOM
      1 C          62.5940   88.3844   11.6175 C.2     1  UNL1        0.2491
      2 O          63.2004   87.1020   12.1050 O.2     1  UNL1       -0.2699
      3 N          61.2776   88.3658   10.8986 N.am    1  UNL1       -0.2776
      4 C          64.3987   91.3935   13.4718 C.ar    1  UNL1        0.1723
      5 C          63.6888   90.0926   13.2403 C.ar    1  UNL1        0.0446
      6 C          63.3039   89.6853   11.8489 C.ar    1  UNL1        0.0568
      7 C          63.6290   90.5790   10.6889 C.ar    1  UNL1        0.0078
      8 C          64.3389   91.8799   10.9203 C.ar    1  UNL1        0.0402
      9 C          64.7238   92.2872   12.3118 C.ar    1  UNL1        0.1724
     10 O          65.4337   93.5881   12.5432 O.3     1  UNL1       -0.4684
     11 C          66.1353   94.2720   11.4074 C.3     1  UNL1        0.2526
     12 O          64.7835   91.8007   14.8632 O.3     1  UNL1       -0.4723
     13 C          66.2275   91.8117   15.2691 C.3     1  UNL1        0.2082
     14 C          66.9643   93.1132   15.3842 C.3     1  UNL1        0.0794
     15 C          68.4614   93.1381   15.2930 C.3     1  UNL1        0.1461
     16 C          68.4110   91.8606   13.0313 C.3     1  UNL1        0.1741
     17 O          69.1623   92.3294   14.2419 O.3     1  UNL1       -0.3510
     18 C          60.6712   89.6483   10.4110 C.3     1  UNL1        0.0757
     19 C          60.7290   89.9989    8.9538 C.3     1  UNL1        0.0215
     20 C          60.0070   90.5801   11.3809 C.3     1  UNL1        0.0215
     21 C          60.5677   87.0650   10.6671 C.3     1  UNL1        0.0967
     22 C          60.6672   86.3828    9.3349 C.3     1  UNL1        0.0550
     23 C          59.6259   86.4003    8.2554 C.3     1  UNL1        0.0720
     24 N          60.1406   85.5917    7.1016 N.3     1  UNL1       -0.2960
     25 C          61.5001   85.0745    7.4680 C.3     1  UNL1        0.0886
     26 C          61.8255   85.5634    8.8483 C.3     1  UNL1        0.0934
     27 H          60.2060   86.1783    6.2697 H       1  UNL1        0.1233
     28 N          63.0877   85.2823    9.6084 N.am    1  UNL1       -0.2708
     29 C          63.1191   84.1851   10.6306 C.2     1  UNL1        0.4016
     30 O          61.8882   83.3688   10.8927 O.2     1  UNL1       -0.2264
     31 H          63.8956   85.8180    9.4363 H       1  UNL1        0.1527
     32 O          64.3813   83.9039   11.3907 O.3     1  UNL1       -0.4347
     33 C          64.3151   83.2496   12.7388 C.3     1  UNL1        0.2100
     34 C          63.9532   84.0594   13.9485 C.3     1  UNL1        0.0439
     35 C          62.7216   83.7225   14.7356 C.3     1  UNL1        0.0037
     36 C          62.3596   84.5322   15.9454 C.3     1  UNL1        0.0001
     37 C          63.2295   85.6788   16.3680 C.3     1  UNL1        0.0000
     38 C          64.4612   86.0158   15.5809 C.3     1  UNL1        0.0001
     39 C          64.8230   85.2060   14.3712 C.3     1  UNL1        0.0037
@<TRIPOS>BOND
     1    16    17    1
     2    17    15    1
     3    15    14    1
     4    14    13    1
     5    13    12    1
     6    12     4    1
     7     4     5   ar
     8     5     6   ar
     9     6     1    1
    10     1     2    2
    11     1     3   am
    12     3    21    1
    13    22    21    1
    14    22    23    1
    15    23    24    1
    16    24    25    1
    17    25    26    1
    18    26    28    1
    19    28    29   am
    20    29    30    2
    21    29    32    1
    22    32    33    1
    23    33    34    1
    24    34    35    1
    25    35    36    1
    26    36    37    1
    27    37    38    1
    28    38    39    1
    29     3    18    1
    30    18    19    1
    31    18    20    1
    32     6     7   ar
    33     7     8   ar
    34     8     9   ar
    35     9    10    1
    36    10    11    1
    37     9     4   ar
    38    26    22    1
    39    39    34    1
    40    24    27    1
    41    28    31    1
