@<TRIPOS>MOLECULE
*****
 34 37 0 0 0
SMALL
GASTEIGER

@<TRIPOS>ATOM
      1 C          66.1678   94.8878   11.1663 C.2     1  UNL1        0.2383
      2 O          66.7411   95.7573   12.2458 O.2     1  UNL1       -0.2735
      3 N          65.5789   93.5524   11.5125 N.am    1  UNL1       -0.2695
      4 C          65.0056   92.6830   10.4330 C.3     1  UNL1        0.1184
      5 C          64.4167   91.3475   10.7791 C.3     1  UNL1        0.1299
      6 N          64.4011   90.8815   12.2048 N.ar    1  UNL1       -0.3005
      7 C          64.9744   91.7510   13.2843 C.ar    1  UNL1        0.1416
      8 N          64.8197   91.0305   14.5909 N.ar    1  UNL1       -0.2279
      9 C          64.1507   89.7158   14.3188 C.ar    1  UNL1        0.1125
     10 C          63.8920   89.6237   12.8441 C.ar    1  UNL1        0.1318
     11 C          65.5633   93.0864   12.9381 C.3     1  UNL1        0.1578
     12 C          63.8017   88.6757   15.3418 C.ar    1  UNL1        0.0205
     13 C          63.1019   89.0737   16.6075 C.ar    1  UNL1        0.0039
     14 C          62.7529   88.0337   17.6304 C.ar    1  UNL1        0.0297
     15 C          63.1037   86.5957   17.3877 C.ar    1  UNL1        0.1401
     16 F          62.7546   85.5556   18.4107 F       1  UNL1       -0.2042
     17 C          63.8034   86.1976   16.1221 C.ar    1  UNL1        0.0297
     18 C          64.1524   87.2376   15.0991 C.ar    1  UNL1        0.0039
     19 C          67.3674   94.4748    9.4663 C.3     1  UNL1        0.0249
     20 C          66.1834   95.3538    9.7406 C.3     1  UNL1        0.1089
     21 C          64.9993   96.2328   10.0150 C.3     1  UNL1        0.0249
     22 N          66.1990   95.8198    8.3149 N.3     1  UNL1       -0.3164
     23 H          65.4434   96.4890    8.1676 H       1  UNL1        0.1192
     24 H          66.0709   95.0204    7.6945 H       1  UNL1        0.1192
     25 N          63.2390   88.4755   12.1335 N.pl3   1  UNL1       -0.2980
     26 H          63.4988   87.5508   12.3498 H       1  UNL1        0.1536
     27 C          62.1900   88.7359   11.0934 C.ar    1  UNL1        0.0518
     28 C          61.3501   89.9764   11.1694 C.ar    1  UNL1        0.0171
     29 C          60.3011   90.2368   10.1292 C.ar    1  UNL1        0.0332
     30 C          60.0922   89.2567    9.0130 C.ar    1  UNL1        0.1675
     31 F          59.0432   89.5171    7.9729 F       1  UNL1       -0.2018
     32 C          60.9321   88.0163    8.9370 C.ar    1  UNL1        0.1686
     33 F          60.7231   87.0362    7.8209 F       1  UNL1       -0.2018
     34 C          61.9810   87.7559    9.9772 C.ar    1  UNL1        0.0466
@<TRIPOS>BOND
     1    19    20    1
     2    20    21    1
     3    20    22    1
     4    20     1    1
     5     1     2    2
     6     1     3   am
     7     3     4    1
     8     4     5    1
     9     5     6    1
    10     6     7   ar
    11     7     8   ar
    12     8     9   ar
    13     9    12    1
    14    12    13   ar
    15    13    14   ar
    16    14    15   ar
    17    15    16    1
    18    15    17   ar
    19    17    18   ar
    20     9    10   ar
    21    10    25    1
    22    25    27    1
    23    27    28   ar
    24    28    29   ar
    25    29    30   ar
    26    30    31    1
    27    30    32   ar
    28    32    33    1
    29    32    34   ar
    30     7    11    1
    31    11     3    1
    32    10     6   ar
    33    34    27   ar
    34    18    12   ar
    35    22    23    1
    36    22    24    1
    37    25    26    1
@<TRIPOS>MOLECULE
*****
 34 37 0 0 0
SMALL
GASTEIGER

@<TRIPOS>ATOM
      1 C          66.4390   94.6339   10.4148 C.2     1  UNL1        0.2383
      2 O          67.6100   95.1200   11.2163 O.2     1  UNL1       -0.2735
      3 N          65.6109   93.4881   10.9161 N.am    1  UNL1       -0.2695
      4 C          64.4399   93.0020   10.1147 C.3     1  UNL1        0.1184
      5 C          63.6117   91.8562   10.6160 C.3     1  UNL1        0.1299
      6 N          63.9545   91.1965   11.9187 N.ar    1  UNL1       -0.3005
      7 C          65.1255   91.6826   12.7202 C.ar    1  UNL1        0.1416
      8 N          65.2209   90.8415   13.9586 N.ar    1  UNL1       -0.2279
      9 C          64.1089   89.8355   13.9224 C.ar    1  UNL1        0.1125
     10 C          63.3262   90.0549   12.6617 C.ar    1  UNL1        0.1318
     11 C          65.9537   92.8284   12.2189 C.3     1  UNL1        0.1578
     12 C          63.8286   88.7931   14.9640 C.ar    1  UNL1        0.0205
     13 C          63.1163   89.1696   16.2292 C.ar    1  UNL1        0.0039
     14 C          62.8361   88.1273   17.2708 C.ar    1  UNL1        0.0297
     15 C          63.2681   86.7084   17.0472 C.ar    1  UNL1        0.1401
     16 F          62.9879   85.6660   18.0888 F       1  UNL1       -0.2042
     17 C          63.9805   86.3319   15.7819 C.ar    1  UNL1        0.0297
     18 C          64.2607   87.3742   14.7404 C.ar    1  UNL1        0.0039
     19 C          67.1124   94.4404    8.4126 C.3     1  UNL1        0.0249
     20 C          66.0962   95.2935    9.1121 C.3     1  UNL1        0.1089
     21 C          65.0800   96.1467    9.8115 C.3     1  UNL1        0.0249
     22 N          65.7534   95.9532    7.8092 N.3     1  UNL1       -0.3164
     23 H          65.0242   96.6498    7.9623 H       1  UNL1        0.1192
     24 H          65.4192   95.2504    7.1498 H       1  UNL1        0.1192
     25 N          62.1259   89.2705   12.2213 N.pl3   1  UNL1       -0.2980
     26 H          61.2260   89.5417   12.5144 H       1  UNL1        0.1536
     27 C          62.2966   88.0730   11.3343 C.ar    1  UNL1        0.0518
     28 C          62.1909   88.2212    9.8454 C.ar    1  UNL1        0.0171
     29 C          62.3617   87.0236    8.9584 C.ar    1  UNL1        0.0332
     30 C          62.6381   85.6778    9.5604 C.ar    1  UNL1        0.1675
     31 F          62.8089   84.4803    8.6735 F       1  UNL1       -0.2018
     32 C          62.7438   85.5296   11.0493 C.ar    1  UNL1        0.1686
     33 F          63.0202   84.1837   11.6513 F       1  UNL1       -0.2018
     34 C          62.5731   86.7271   11.9363 C.ar    1  UNL1        0.0466
@<TRIPOS>BOND
     1    19    20    1
     2    20    21    1
     3    20    22    1
     4    20     1    1
     5     1     2    2
     6     1     3   am
     7     3     4    1
     8     4     5    1
     9     5     6    1
    10     6     7   ar
    11     7     8   ar
    12     8     9   ar
    13     9    12    1
    14    12    13   ar
    15    13    14   ar
    16    14    15   ar
    17    15    16    1
    18    15    17   ar
    19    17    18   ar
    20     9    10   ar
    21    10    25    1
    22    25    27    1
    23    27    28   ar
    24    28    29   ar
    25    29    30   ar
    26    30    31    1
    27    30    32   ar
    28    32    33    1
    29    32    34   ar
    30     7    11    1
    31    11     3    1
    32    10     6   ar
    33    34    27   ar
    34    18    12   ar
    35    22    23    1
    36    22    24    1
    37    25    26    1
@<TRIPOS>MOLECULE
*****
 34 37 0 0 0
SMALL
GASTEIGER

@<TRIPOS>ATOM
      1 C          61.2092   87.2302   10.8267 C.2     1  UNL1        0.2383
      2 O          61.4192   85.9410   11.5640 O.2     1  UNL1       -0.2735
      3 N          62.0303   88.4361   11.1755 N.am    1  UNL1       -0.2695
      4 C          61.8202   89.7253   10.4382 C.3     1  UNL1        0.1184
      5 C          62.6413   90.9312   10.7871 C.3     1  UNL1        0.1299
      6 N          63.6724   90.8478   11.8732 N.ar    1  UNL1       -0.3005
      7 C          63.8825   89.5586   12.6105 C.ar    1  UNL1        0.1416
      8 N          64.9645   89.7765   13.6264 N.ar    1  UNL1       -0.2279
      9 C          65.4231   91.2004   13.5169 C.ar    1  UNL1        0.1125
     10 C          64.6246   91.8625   12.4334 C.ar    1  UNL1        0.1318
     11 C          63.0614   88.3527   12.2617 C.3     1  UNL1        0.1578
     12 C          66.4925   91.8485   14.3454 C.ar    1  UNL1        0.0205
     13 C          67.8953   91.9389   13.8219 C.ar    1  UNL1        0.0039
     14 C          68.9646   92.5870   14.6504 C.ar    1  UNL1        0.0297
     15 C          68.6313   93.1447   16.0023 C.ar    1  UNL1        0.1401
     16 F          69.7007   93.7928   16.8308 F       1  UNL1       -0.2042
     17 C          67.2285   93.0543   16.5258 C.ar    1  UNL1        0.0297
     18 C          66.1591   92.4062   15.6974 C.ar    1  UNL1        0.0039
     19 C          59.3476   88.2213   10.5986 C.3     1  UNL1        0.0249
     20 C          60.1780   87.3136    9.7405 C.3     1  UNL1        0.1089
     21 C          61.0085   86.4059    8.8825 C.3     1  UNL1        0.0249
     22 N          59.1468   87.3970    8.6544 N.3     1  UNL1       -0.3164
     23 H          59.4455   86.8339    7.8580 H       1  UNL1        0.1192
     24 H          59.0383   88.3683    8.3624 H       1  UNL1        0.1192
     25 N          64.7552   93.2890   11.9881 N.pl3   1  UNL1       -0.2980
     26 H          64.1971   93.9867   12.4015 H       1  UNL1        0.1536
     27 C          65.7362   93.6523   10.9132 C.ar    1  UNL1        0.0518
     28 C          65.7514   95.0426   10.3504 C.ar    1  UNL1        0.0171
     29 C          66.7325   95.4059    9.2753 C.ar    1  UNL1        0.0332
     30 C          67.6984   94.3789    8.7632 C.ar    1  UNL1        0.1675
     31 F          68.6794   94.7422    7.6883 F       1  UNL1       -0.2018
     32 C          67.6832   92.9885    9.3260 C.ar    1  UNL1        0.1686
     33 F          68.6491   91.9615    8.8139 F       1  UNL1       -0.2018
     34 C          66.7022   92.6253   10.4010 C.ar    1  UNL1        0.0466
@<TRIPOS>BOND
     1    19    20    1
     2    20    21    1
     3    20    22    1
     4    20     1    1
     5     1     2    2
     6     1     3   am
     7     3     4    1
     8     4     5    1
     9     5     6    1
    10     6     7   ar
    11     7     8   ar
    12     8     9   ar
    13     9    12    1
    14    12    13   ar
    15    13    14   ar
    16    14    15   ar
    17    15    16    1
    18    15    17   ar
    19    17    18   ar
    20     9    10   ar
    21    10    25    1
    22    25    27    1
    23    27    28   ar
    24    28    29   ar
    25    29    30   ar
    26    30    31    1
    27    30    32   ar
    28    32    33    1
    29    32    34   ar
    30     7    11    1
    31    11     3    1
    32    10     6   ar
    33    34    27   ar
    34    18    12   ar
    35    22    23    1
    36    22    24    1
    37    25    26    1
@<TRIPOS>MOLECULE
*****
 34 37 0 0 0
SMALL
GASTEIGER

@<TRIPOS>ATOM
      1 C          63.5167   81.4639   13.0131 C.2     1  UNL1        0.2383
      2 O          64.0655   80.8200   14.2516 O.2     1  UNL1       -0.2735
      3 N          63.4381   82.9588   12.9168 N.am    1  UNL1       -0.2695
      4 C          62.8893   83.6028   11.6782 C.3     1  UNL1        0.1184
      5 C          62.8108   85.0976   11.5820 C.3     1  UNL1        0.1299
      6 N          63.2810   85.9485   12.7243 N.ar    1  UNL1       -0.3005
      7 C          63.8298   85.3045   13.9628 C.ar    1  UNL1        0.1416
      8 N          64.2145   86.3935   14.9200 N.ar    1  UNL1       -0.2279
      9 C          63.9035   87.7105   14.2729 C.ar    1  UNL1        0.1125
     10 C          63.3265   87.4355   12.9159 C.ar    1  UNL1        0.1318
     11 C          63.9084   83.8096   14.0591 C.3     1  UNL1        0.1578
     12 C          64.1296   89.0649   14.8769 C.ar    1  UNL1        0.0205
     13 C          65.1163   90.0081   14.2550 C.ar    1  UNL1        0.0039
     14 C          65.3425   91.3624   14.8589 C.ar    1  UNL1        0.0297
     15 C          64.5819   91.7735   16.0846 C.ar    1  UNL1        0.1401
     16 F          64.8081   93.1278   16.6885 F       1  UNL1       -0.2042
     17 C          63.5952   90.8303   16.7065 C.ar    1  UNL1        0.0297
     18 C          63.3690   89.4760   16.1026 C.ar    1  UNL1        0.0039
     19 C          63.8706   81.4317   10.9218 C.3     1  UNL1        0.0249
     20 C          63.0465   80.6131   11.8708 C.3     1  UNL1        0.1089
     21 C          62.2223   79.7945   12.8198 C.3     1  UNL1        0.0249
     22 N          62.5762   79.7622   10.7284 N.3     1  UNL1       -0.3164
     23 H          61.9413   79.0445   11.0779 H       1  UNL1        0.1192
     24 H          63.3788   79.3181   10.2824 H       1  UNL1        0.1192
     25 N          62.8744   88.4664   11.9246 N.pl3   1  UNL1       -0.2980
     26 H          63.2775   89.3646   11.9301 H       1  UNL1        0.1536
     27 C          61.8083   88.1289   10.9249 C.ar    1  UNL1        0.0518
     28 C          60.4021   88.6052   11.1384 C.ar    1  UNL1        0.0171
     29 C          59.3359   88.2676   10.1386 C.ar    1  UNL1        0.0332
     30 C          59.6761   87.4538    8.9253 C.ar    1  UNL1        0.1675
     31 F          58.6099   87.1163    7.9257 F       1  UNL1       -0.2018
     32 C          61.0823   86.9775    8.7118 C.ar    1  UNL1        0.1686
     33 F          61.4225   86.1637    7.4986 F       1  UNL1       -0.2018
     34 C          62.1484   87.3151    9.7116 C.ar    1  UNL1        0.0466
@<TRIPOS>BOND
     1    19    20    1
     2    20    21    1
     3    20    22    1
     4    20     1    1
     5     1     2    2
     6     1     3   am
     7     3     4    1
     8     4     5    1
     9     5     6    1
    10     6     7   ar
    11     7     8   ar
    12     8     9   ar
    13     9    12    1
    14    12    13   ar
    15    13    14   ar
    16    14    15   ar
    17    15    16    1
    18    15    17   ar
    19    17    18   ar
    20     9    10   ar
    21    10    25    1
    22    25    27    1
    23    27    28   ar
    24    28    29   ar
    25    29    30   ar
    26    30    31    1
    27    30    32   ar
    28    32    33    1
    29    32    34   ar
    30     7    11    1
    31    11     3    1
    32    10     6   ar
    33    34    27   ar
    34    18    12   ar
    35    22    23    1
    36    22    24    1
    37    25    26    1
@<TRIPOS>MOLECULE
*****
 34 37 0 0 0
SMALL
GASTEIGER

@<TRIPOS>ATOM
      1 C          60.4514   87.8920    8.3467 C.2     1  UNL1        0.2383
      2 O          60.1019   89.1407    7.5927 O.2     1  UNL1       -0.2735
      3 N          61.2975   87.9741    9.5825 N.am    1  UNL1       -0.2695
      4 C          61.6470   86.7254   10.3365 C.3     1  UNL1        0.1184
      5 C          62.4931   86.8075   11.5724 C.3     1  UNL1        0.1299
      6 N          62.9896   88.1384   12.0543 N.ar    1  UNL1       -0.3005
      7 C          62.6401   89.3871   11.3003 C.ar    1  UNL1        0.1416
      8 N          63.2694   90.5489   12.0105 N.ar    1  UNL1       -0.2279
      9 C          64.0078   90.0182   13.2034 C.ar    1  UNL1        0.1125
     10 C          63.8349   88.5284   13.2305 C.ar    1  UNL1        0.1318
     11 C          61.7940   89.3049   10.0644 C.3     1  UNL1        0.1578
     12 C          64.7830   90.8340   14.1952 C.ar    1  UNL1        0.0205
     13 C          66.1771   91.2827   13.8708 C.ar    1  UNL1        0.0039
     14 C          66.9523   92.0984   14.8625 C.ar    1  UNL1        0.0297
     15 C          66.3335   92.4655   16.1786 C.ar    1  UNL1        0.1401
     16 F          67.1087   93.2813   17.1704 F       1  UNL1       -0.2042
     17 C          64.9394   92.0168   16.5030 C.ar    1  UNL1        0.0297
     18 C          64.1642   91.2010   15.5113 C.ar    1  UNL1        0.0039
     19 C          58.5394   87.0289    8.0316 C.3     1  UNL1        0.0249
     20 C          59.9548   86.5611    7.8648 C.3     1  UNL1        0.1089
     21 C          61.3702   86.0934    7.6979 C.3     1  UNL1        0.0249
     22 N          59.4581   85.2303    7.3829 N.3     1  UNL1       -0.3164
     23 H          60.2530   84.6287    7.1667 H       1  UNL1        0.1192
     24 H          58.8931   85.3617    6.5439 H       1  UNL1        0.1192
     25 N          64.4068   87.5929   14.2540 N.pl3   1  UNL1       -0.2980
     26 H          65.1487   87.8876   14.8302 H       1  UNL1        0.1536
     27 C          63.8485   86.2083   14.3997 C.ar    1  UNL1        0.0518
     28 C          62.9244   85.8881   15.5370 C.ar    1  UNL1        0.0171
     29 C          62.3661   84.5034   15.6826 C.ar    1  UNL1        0.0332
     30 C          62.7319   83.4391   14.6910 C.ar    1  UNL1        0.1675
     31 F          62.1736   82.0545   14.8366 F       1  UNL1       -0.2018
     32 C          63.6560   83.7593   13.5537 C.ar    1  UNL1        0.1686
     33 F          64.0218   82.6950   12.5620 F       1  UNL1       -0.2018
     34 C          64.2143   85.1439   13.4080 C.ar    1  UNL1        0.0466
@<TRIPOS>BOND
     1    19    20    1
     2    20    21    1
     3    20    22    1
     4    20     1    1
     5     1     2    2
     6     1     3   am
     7     3     4    1
     8     4     5    1
     9     5     6    1
    10     6     7   ar
    11     7     8   ar
    12     8     9   ar
    13     9    12    1
    14    12    13   ar
    15    13    14   ar
    16    14    15   ar
    17    15    16    1
    18    15    17   ar
    19    17    18   ar
    20     9    10   ar
    21    10    25    1
    22    25    27    1
    23    27    28   ar
    24    28    29   ar
    25    29    30   ar
    26    30    31    1
    27    30    32   ar
    28    32    33    1
    29    32    34   ar
    30     7    11    1
    31    11     3    1
    32    10     6   ar
    33    34    27   ar
    34    18    12   ar
    35    22    23    1
    36    22    24    1
    37    25    26    1
@<TRIPOS>MOLECULE
*****
 34 37 0 0 0
SMALL
GASTEIGER

@<TRIPOS>ATOM
      1 C          59.8341   88.9989    8.5320 C.2     1  UNL1        0.2383
      2 O          59.3777   90.2892    7.9184 O.2     1  UNL1       -0.2735
      3 N          60.8785   89.0084    9.6087 N.am    1  UNL1       -0.2695
      4 C          61.3349   87.7181   10.2223 C.3     1  UNL1        0.1184
      5 C          62.3793   87.7276   11.2990 C.3     1  UNL1        0.1299
      6 N          62.9672   89.0276   11.7620 N.ar    1  UNL1       -0.3005
      7 C          62.5108   90.3179   11.1484 C.ar    1  UNL1        0.1416
      8 N          63.2660   91.4358   11.8042 N.ar    1  UNL1       -0.2279
      9 C          64.1892   90.8363   12.8231 C.ar    1  UNL1        0.1125
     10 C          64.0045   89.3479   12.7971 C.ar    1  UNL1        0.1318
     11 C          61.4664   90.3084   10.0717 C.3     1  UNL1        0.1578
     12 C          65.1317   91.5924   13.7121 C.ar    1  UNL1        0.0205
     13 C          64.9264   91.5891   15.1980 C.ar    1  UNL1        0.0039
     14 C          65.8688   92.3451   16.0870 C.ar    1  UNL1        0.0297
     15 C          67.0164   93.1044   15.4901 C.ar    1  UNL1        0.1401
     16 F          67.9588   93.8604   16.3791 F       1  UNL1       -0.2042
     17 C          67.2217   93.1077   14.0042 C.ar    1  UNL1        0.0297
     18 C          66.2793   92.3517   13.1152 C.ar    1  UNL1        0.0039
     19 C          59.0991   87.2575    9.4949 C.3     1  UNL1        0.0249
     20 C          59.2462   87.6989    8.0690 C.3     1  UNL1        0.1089
     21 C          59.3933   88.1403    6.6430 C.3     1  UNL1        0.0249
     22 N          58.6582   86.3989    7.6059 N.3     1  UNL1       -0.3164
     23 H          58.6193   86.3872    6.5868 H       1  UNL1        0.1192
     24 H          57.7160   86.2983    7.9834 H       1  UNL1        0.1192
     25 N          64.7298   88.3543   13.6554 N.pl3   1  UNL1       -0.2980
     26 H          65.6163   88.0234   13.3834 H       1  UNL1        0.1536
     27 C          64.1046   87.8648   14.9279 C.ar    1  UNL1        0.0518
     28 C          63.5982   88.8480   15.9413 C.ar    1  UNL1        0.0171
     29 C          62.9729   88.3584   17.2140 C.ar    1  UNL1        0.0332
     30 C          62.8540   86.8857   17.4731 C.ar    1  UNL1        0.1675
     31 F          62.2288   86.3963   18.7456 F       1  UNL1       -0.2018
     32 C          63.3604   85.9026   16.4597 C.ar    1  UNL1        0.1686
     33 F          63.2416   84.4299   16.7188 F       1  UNL1       -0.2018
     34 C          63.9857   86.3922   15.1871 C.ar    1  UNL1        0.0466
@<TRIPOS>BOND
     1    19    20    1
     2    20    21    1
     3    20    22    1
     4    20     1    1
     5     1     2    2
     6     1     3   am
     7     3     4    1
     8     4     5    1
     9     5     6    1
    10     6     7   ar
    11     7     8   ar
    12     8     9   ar
    13     9    12    1
    14    12    13   ar
    15    13    14   ar
    16    14    15   ar
    17    15    16    1
    18    15    17   ar
    19    17    18   ar
    20     9    10   ar
    21    10    25    1
    22    25    27    1
    23    27    28   ar
    24    28    29   ar
    25    29    30   ar
    26    30    31    1
    27    30    32   ar
    28    32    33    1
    29    32    34   ar
    30     7    11    1
    31    11     3    1
    32    10     6   ar
    33    34    27   ar
    34    18    12   ar
    35    22    23    1
    36    22    24    1
    37    25    26    1
