@<TRIPOS>MOLECULE
*****
 52 55 0 0 0
SMALL
GASTEIGER

@<TRIPOS>ATOM
      1 C          62.0352   88.9063   11.2647 C.3     1  UNL1        0.0979
      2 C          62.2199   86.3210   11.4451 C.2     1  UNL1        0.2406
      3 O          60.9351   86.2832   12.2184 O.2     1  UNL1       -0.2733
      4 N          62.7699   87.6326   10.9682 N.am    1  UNL1       -0.3006
      5 H          63.6131   87.6574   10.4607 H       1  UNL1        0.1497
      6 C          62.9546   85.0473   11.1487 C.3     1  UNL1        0.1496
      7 N          63.2904   81.9269   13.5777 N.am    1  UNL1       -0.2567
      8 C          62.6975   80.5607   13.7573 C.3     1  UNL1        0.1168
      9 C          62.8261   82.8040   12.4530 C.2     1  UNL1        0.3046
     10 O          61.7689   82.3151   11.5078 O.2     1  UNL1       -0.2526
     11 N          63.4189   84.1701   12.2734 N.am    1  UNL1       -0.2824
     12 H          64.1128   84.4911   12.8938 H       1  UNL1        0.1514
     13 C          64.3475   82.4158   14.5228 C.3     1  UNL1        0.1413
     14 C          63.8281   85.9515   16.0376 C.ar    1  UNL1        0.0875
     15 N          63.4441   84.5061   15.9227 N.ar    1  UNL1       -0.2453
     16 C          64.3725   83.8565   14.9399 C.ar    1  UNL1        0.0858
     17 C          65.3304   84.9005   14.4473 C.ar    1  UNL1        0.0530
     18 S          64.9939   86.1953   15.1257 S.2     1  UNL1       -0.0705
     19 C          63.1627   88.4186   16.5077 C.3     1  UNL1        0.0069
     20 C          63.1631   86.9738   16.9110 C.3     1  UNL1        0.0465
     21 C          62.4985   86.5513   18.1876 C.3     1  UNL1        0.0069
     22 C          63.2249   84.6508    9.7276 C.3     1  UNL1        0.0270
     23 C          62.6245   85.4393    8.6017 C.3     1  UNL1        0.0022
     24 C          64.0957   83.4656    9.4323 C.3     1  UNL1        0.0022
     25 C          62.7494   90.0476   11.9260 C.2     1  UNL1       -0.0095
     26 C          63.9144   89.7793   12.8318 C.2     1  UNL1       -0.0094
     27 C          64.6287   90.9206   13.4931 C.3     1  UNL1        0.1011
     28 N          64.4422   92.3187   12.9828 N.am    1  UNL1       -0.2682
     29 C          65.3368   92.8479   11.9012 C.2     1  UNL1        0.4022
     30 O          66.4178   91.9789   11.3300 O.2     1  UNL1       -0.2264
     31 H          63.7327   92.8891   13.3577 H       1  UNL1        0.1530
     32 O          65.1503   94.2460   11.3908 O.3     1  UNL1       -0.4291
     33 C          66.3345   95.1547   11.2430 C.3     1  UNL1        0.2447
     34 C          66.8641   95.4806    9.8780 C.ar    1  UNL1        0.0714
     35 C          67.1325   96.8554    9.3415 C.ar    1  UNL1        0.1053
     36 N          67.6525   96.7134    7.9417 N.ar    1  UNL1       -0.2350
     37 C          67.7055   95.2508    7.6131 C.ar    1  UNL1        0.1343
     38 S          67.2182   94.4889    8.8097 S.2     1  UNL1       -0.0652
     39 C          65.5294   90.6638   14.6648 C.3     1  UNL1        0.0505
     40 C          66.6723   91.5925   14.9500 C.ar    1  UNL1       -0.0202
     41 C          66.5095   92.6964   15.9524 C.ar    1  UNL1       -0.0042
     42 C          67.6523   93.6251   16.2376 C.ar    1  UNL1       -0.0003
     43 C          68.9580   93.4499   15.5203 C.ar    1  UNL1       -0.0000
     44 C          69.1208   92.3460   14.5179 C.ar    1  UNL1       -0.0003
     45 C          67.9780   91.4173   14.2327 C.ar    1  UNL1       -0.0042
     46 C          60.5862   89.0386   10.8998 C.3     1  UNL1        0.0504
     47 C          60.1170   88.6350    9.5334 C.ar    1  UNL1       -0.0202
     48 C          60.1280   89.6312    8.4121 C.ar    1  UNL1       -0.0042
     49 C          59.6587   89.2276    7.0457 C.ar    1  UNL1       -0.0003
     50 C          59.1786   87.8278    6.8007 C.ar    1  UNL1       -0.0000
     51 C          59.1677   86.8315    7.9221 C.ar    1  UNL1       -0.0003
     52 C          59.6369   87.2351    9.2885 C.ar    1  UNL1       -0.0042
@<TRIPOS>BOND
     1    19    20    1
     2    20    21    1
     3    20    14    1
     4    14    15   ar
     5    15    16   ar
     6    16    13    1
     7    13     7    1
     8     7     8    1
     9     7     9   am
    10     9    10    2
    11     9    11   am
    12     6    11    1
    13     6     2    1
    14     2     3    2
    15     2     4   am
    16     4     1    1
    17     1    25    1
    18    25    26    2
    19    26    27    1
    20    27    39    1
    21    39    40    1
    22    40    41   ar
    23    41    42   ar
    24    42    43   ar
    25    43    44   ar
    26    44    45   ar
    27    27    28    1
    28    28    29   am
    29    29    30    2
    30    29    32    1
    31    32    33    1
    32    33    34    1
    33    34    35   ar
    34    35    36   ar
    35    36    37   ar
    36    37    38   ar
    37     1    46    1
    38    46    47    1
    39    47    48   ar
    40    48    49   ar
    41    49    50   ar
    42    50    51   ar
    43    51    52   ar
    44     6    22    1
    45    22    23    1
    46    22    24    1
    47    16    17   ar
    48    17    18   ar
    49    18    14   ar
    50    45    40   ar
    51    38    34   ar
    52    52    47   ar
    53    11    12    1
    54     4     5    1
    55    28    31    1
@<TRIPOS>MOLECULE
*****
 52 55 0 0 0
SMALL
GASTEIGER

@<TRIPOS>ATOM
      1 C          61.8849   88.7654   11.1595 C.3     1  UNL1        0.0979
      2 C          63.5386   90.2735   12.4789 C.2     1  UNL1        0.2406
      3 O          63.9786   90.9137   11.1958 O.2     1  UNL1       -0.2733
      4 N          62.4917   89.1994   12.4608 N.am    1  UNL1       -0.3006
      5 H          62.2029   88.7792   13.3030 H       1  UNL1        0.1497
      6 C          64.1454   90.7075   13.7803 C.3     1  UNL1        0.1496
      7 N          67.1172   93.2398   14.4917 N.am    1  UNL1       -0.2567
      8 C          68.5049   93.2284   15.0611 C.3     1  UNL1        0.1168
      9 C          66.3251   91.9680   14.4207 C.2     1  UNL1        0.3046
     10 O          66.9208   90.6846   14.9191 O.2     1  UNL1       -0.2526
     11 N          64.9374   91.9794   13.8513 N.am    1  UNL1       -0.2824
     12 H          64.5465   92.8217   13.5242 H       1  UNL1        0.1514
     13 C          66.5215   94.5231   13.9933 C.3     1  UNL1        0.1413
     14 C          67.0491   94.7457   10.1544 C.ar    1  UNL1        0.0875
     15 N          67.1684   94.0033   11.4523 N.ar    1  UNL1       -0.2453
     16 C          66.6036   94.8722   12.5368 C.ar    1  UNL1        0.0858
     17 C          66.1353   96.1515   11.9091 C.ar    1  UNL1        0.0530
     18 S          66.4106   96.0734   10.4366 S.2     1  UNL1       -0.0705
     19 C          68.2752   92.9737    8.7028 C.3     1  UNL1        0.0069
     20 C          67.4908   94.2477    8.8101 C.3     1  UNL1        0.0465
     21 C          67.1481   95.0239    7.5731 C.3     1  UNL1        0.0069
     22 C          63.9602   89.8696   15.0106 C.3     1  UNL1        0.0270
     23 C          64.2665   88.4018   14.9714 C.3     1  UNL1        0.0022
     24 C          63.4686   90.4996   16.2799 C.3     1  UNL1        0.0022
     25 C          62.3728   87.5185   10.4833 C.2     1  UNL1       -0.0095
     26 C          62.2617   86.1949   11.1802 C.2     1  UNL1       -0.0094
     27 C          62.7496   84.9480   10.5040 C.3     1  UNL1        0.1011
     28 N          62.5470   83.6127   11.1566 N.am    1  UNL1       -0.2682
     29 C          63.6968   82.6575   11.2828 C.2     1  UNL1        0.4022
     30 O          65.0489   83.0377   10.7565 O.2     1  UNL1       -0.2264
     31 H          61.6596   83.3631   11.5020 H       1  UNL1        0.1530
     32 O          63.4942   81.3222   11.9354 O.3     1  UNL1       -0.4291
     33 C          63.4074   81.2231   13.4296 C.3     1  UNL1        0.2447
     34 C          63.2895   82.4678   14.2582 C.ar    1  UNL1        0.0714
     35 C          62.0367   82.9825   14.9029 C.ar    1  UNL1        0.1053
     36 N          62.3766   84.2493   15.6308 N.ar    1  UNL1       -0.2350
     37 C          63.8395   84.5175   15.4360 C.ar    1  UNL1        0.1343
     38 S          64.4037   83.4165   14.5877 S.2     1  UNL1       -0.0652
     39 C          63.4400   85.0364    9.1753 C.3     1  UNL1        0.0505
     40 C          62.6569   84.8508    7.9094 C.ar    1  UNL1       -0.0202
     41 C          61.1723   85.0646    7.9076 C.ar    1  UNL1       -0.0042
     42 C          60.3893   84.8790    6.6418 C.ar    1  UNL1       -0.0003
     43 C          61.0910   84.4796    5.3776 C.ar    1  UNL1       -0.0000
     44 C          62.5757   84.2658    5.3793 C.ar    1  UNL1       -0.0003
     45 C          63.3586   84.4514    6.6452 C.ar    1  UNL1       -0.0042
     46 C          60.7902   89.5783   10.5344 C.3     1  UNL1        0.0504
     47 C          60.0979   89.0809    9.3001 C.ar    1  UNL1       -0.0202
     48 C          59.3809   87.7636    9.3217 C.ar    1  UNL1       -0.0042
     49 C          58.6887   87.2661    8.0875 C.ar    1  UNL1       -0.0003
     50 C          58.7134   88.0860    6.8317 C.ar    1  UNL1       -0.0000
     51 C          59.4304   89.4034    6.8100 C.ar    1  UNL1       -0.0003
     52 C          60.1227   89.9008    8.0443 C.ar    1  UNL1       -0.0042
@<TRIPOS>BOND
     1    19    20    1
     2    20    21    1
     3    20    14    1
     4    14    15   ar
     5    15    16   ar
     6    16    13    1
     7    13     7    1
     8     7     8    1
     9     7     9   am
    10     9    10    2
    11     9    11   am
    12     6    11    1
    13     6     2    1
    14     2     3    2
    15     2     4   am
    16     4     1    1
    17     1    25    1
    18    25    26    2
    19    26    27    1
    20    27    39    1
    21    39    40    1
    22    40    41   ar
    23    41    42   ar
    24    42    43   ar
    25    43    44   ar
    26    44    45   ar
    27    27    28    1
    28    28    29   am
    29    29    30    2
    30    29    32    1
    31    32    33    1
    32    33    34    1
    33    34    35   ar
    34    35    36   ar
    35    36    37   ar
    36    37    38   ar
    37     1    46    1
    38    46    47    1
    39    47    48   ar
    40    48    49   ar
    41    49    50   ar
    42    50    51   ar
    43    51    52   ar
    44     6    22    1
    45    22    23    1
    46    22    24    1
    47    16    17   ar
    48    17    18   ar
    49    18    14   ar
    50    45    40   ar
    51    38    34   ar
    52    52    47   ar
    53    11    12    1
    54     4     5    1
    55    28    31    1
@<TRIPOS>MOLECULE
*****
 52 55 0 0 0
SMALL
GASTEIGER

@<TRIPOS>ATOM
      1 C          64.1110   91.6594   11.1539 C.3     1  UNL1        0.0979
      2 C          61.9236   90.3088   10.7784 C.2     1  UNL1        0.2406
      3 O          62.7036   89.0289   10.8377 O.2     1  UNL1       -0.2733
      4 N          62.6273   91.6240   10.9365 N.am    1  UNL1       -0.3006
      5 H          62.1153   92.4641   10.8976 H       1  UNL1        0.1497
      6 C          60.4398   90.2734   10.5611 C.3     1  UNL1        0.1496
      7 N          59.4235   88.8548    6.9967 N.am    1  UNL1       -0.2567
      8 C          59.5122   87.5758    6.2180 C.3     1  UNL1        0.1168
      9 C          59.9760   88.9247    8.3895 C.2     1  UNL1        0.3046
     10 O          60.6172   87.7156    9.0036 O.2     1  UNL1       -0.2526
     11 N          59.8873   90.2036    9.1682 N.am    1  UNL1       -0.2824
     12 H          59.4665   90.9972    8.7652 H       1  UNL1        0.1514
     13 C          58.7824   90.0638    6.3827 C.3     1  UNL1        0.1413
     14 C          61.2477   91.6421    3.8338 C.ar    1  UNL1        0.0875
     15 N          60.9385   90.6499    4.9154 N.ar    1  UNL1       -0.2453
     16 C          59.5097   90.8446    5.3284 C.ar    1  UNL1        0.0858
     17 C          58.9358   91.9571    4.5019 C.ar    1  UNL1        0.0530
     18 S          60.0099   92.4500    3.5782 S.2     1  UNL1       -0.0705
     19 C          63.6195   90.7428    3.2716 C.3     1  UNL1        0.0069
     20 C          62.5636   91.7989    3.1310 C.3     1  UNL1        0.0465
     21 C          62.8237   93.0118    2.2877 C.3     1  UNL1        0.0069
     22 C          59.5086   90.3079   11.7365 C.3     1  UNL1        0.0270
     23 C          58.5322   91.4366   11.8869 C.3     1  UNL1        0.0022
     24 C          59.5538   89.2137   12.7614 C.3     1  UNL1        0.0022
     25 C          64.6812   91.3050   12.4952 C.2     1  UNL1       -0.0095
     26 C          63.7856   90.7708   13.5734 C.2     1  UNL1       -0.0094
     27 C          64.3557   90.4163   14.9148 C.3     1  UNL1        0.1011
     28 N          64.3021   88.9985   15.4017 N.am    1  UNL1       -0.2682
     29 C          63.0697   88.4870   16.0870 C.2     1  UNL1        0.4022
     30 O          61.8910   89.3933   16.2855 O.2     1  UNL1       -0.2264
     31 H          65.0757   88.4037   15.2714 H       1  UNL1        0.1530
     32 O          63.0160   87.0693   16.5739 O.3     1  UNL1       -0.4291
     33 C          63.9709   86.0511   16.0248 C.3     1  UNL1        0.2447
     34 C          63.5034   85.0600   15.0005 C.ar    1  UNL1        0.0714
     35 C          63.5990   85.2188   13.5120 C.ar    1  UNL1        0.1053
     36 N          63.0129   83.9931   12.8764 N.ar    1  UNL1       -0.2350
     37 C          62.5549   83.0767   13.9721 C.ar    1  UNL1        0.1343
     38 S          62.8581   83.7361   15.2848 S.2     1  UNL1       -0.0652
     39 C          64.9795   91.4796   15.7694 C.3     1  UNL1        0.0505
     40 C          66.3809   91.9377   15.4930 C.ar    1  UNL1       -0.0202
     41 C          66.9999   93.0105   16.3390 C.ar    1  UNL1       -0.0042
     42 C          68.4013   93.4685   16.0626 C.ar    1  UNL1       -0.0003
     43 C          69.1836   92.8536   14.9402 C.ar    1  UNL1       -0.0000
     44 C          68.5647   91.7807   14.0942 C.ar    1  UNL1       -0.0003
     45 C          67.1633   91.3228   14.3706 C.ar    1  UNL1       -0.0042
     46 C          65.0246   92.0492   10.0298 C.3     1  UNL1        0.0504
     47 C          65.7773   93.3453   10.0902 C.ar    1  UNL1       -0.0202
     48 C          65.3580   94.4117   11.0581 C.ar    1  UNL1       -0.0042
     49 C          66.1107   95.7078   11.1184 C.ar    1  UNL1       -0.0003
     50 C          67.2826   95.9375   10.2108 C.ar    1  UNL1       -0.0000
     51 C          67.7019   94.8710    9.2428 C.ar    1  UNL1       -0.0003
     52 C          66.9493   93.5749    9.1825 C.ar    1  UNL1       -0.0042
@<TRIPOS>BOND
     1    19    20    1
     2    20    21    1
     3    20    14    1
     4    14    15   ar
     5    15    16   ar
     6    16    13    1
     7    13     7    1
     8     7     8    1
     9     7     9   am
    10     9    10    2
    11     9    11   am
    12     6    11    1
    13     6     2    1
    14     2     3    2
    15     2     4   am
    16     4     1    1
    17     1    25    1
    18    25    26    2
    19    26    27    1
    20    27    39    1
    21    39    40    1
    22    40    41   ar
    23    41    42   ar
    24    42    43   ar
    25    43    44   ar
    26    44    45   ar
    27    27    28    1
    28    28    29   am
    29    29    30    2
    30    29    32    1
    31    32    33    1
    32    33    34    1
    33    34    35   ar
    34    35    36   ar
    35    36    37   ar
    36    37    38   ar
    37     1    46    1
    38    46    47    1
    39    47    48   ar
    40    48    49   ar
    41    49    50   ar
    42    50    51   ar
    43    51    52   ar
    44     6    22    1
    45    22    23    1
    46    22    24    1
    47    16    17   ar
    48    17    18   ar
    49    18    14   ar
    50    45    40   ar
    51    38    34   ar
    52    52    47   ar
    53    11    12    1
    54     4     5    1
    55    28    31    1
@<TRIPOS>MOLECULE
*****
 52 55 0 0 0
SMALL
GASTEIGER

@<TRIPOS>ATOM
      1 C          61.9514   88.5093   11.7172 C.3     1  UNL1        0.0979
      2 C          62.6198   86.2374   10.6487 C.2     1  UNL1        0.2406
      3 O          62.8068   86.9155    9.3239 O.2     1  UNL1       -0.2733
      4 N          62.1921   87.0343   11.8454 N.am    1  UNL1       -0.3006
      5 H          62.0694   86.5893   12.7149 H       1  UNL1        0.1497
      6 C          62.8605   84.7624   10.7769 C.3     1  UNL1        0.1496
      7 N          62.2541   81.8433   13.3963 N.am    1  UNL1       -0.2567
      8 C          62.4079   80.3542   13.4904 C.3     1  UNL1        0.1168
      9 C          62.6342   82.5583   12.1337 C.2     1  UNL1        0.3046
     10 O          63.1681   81.7841   10.9650 O.2     1  UNL1       -0.2526
     11 N          62.4804   84.0474   12.0396 N.am    1  UNL1       -0.2824
     12 H          62.1300   84.5555   12.8066 H       1  UNL1        0.1514
     13 C          61.7202   82.6175   14.5649 C.3     1  UNL1        0.1413
     14 C          63.1124   85.7833   16.3270 C.ar    1  UNL1        0.0875
     15 N          61.9720   84.8751   15.9739 N.ar    1  UNL1       -0.2453
     16 C          62.5141   83.7543   15.1372 C.ar    1  UNL1        0.0858
     17 C          63.9895   83.9699   14.9733 C.ar    1  UNL1        0.0530
     18 S          64.3593   85.2239   15.7087 S.2     1  UNL1       -0.0705
     19 C          62.6858   86.9427   18.6127 C.3     1  UNL1        0.0069
     20 C          63.0217   87.0318   17.1535 C.3     1  UNL1        0.0465
     21 C          63.2670   88.3695   16.5208 C.3     1  UNL1        0.0069
     22 C          63.4813   84.0024    9.6425 C.3     1  UNL1        0.0270
     23 C          64.6730   83.1257    9.8903 C.3     1  UNL1        0.0022
     24 C          62.9104   84.1190    8.2603 C.3     1  UNL1        0.0022
     25 C          63.0354   89.4805   12.0802 C.2     1  UNL1       -0.0095
     26 C          63.2548   90.7064   11.2442 C.2     1  UNL1       -0.0094
     27 C          64.3388   91.6776   11.6072 C.3     1  UNL1        0.1011
     28 N          65.1233   91.4879   12.8715 N.am    1  UNL1       -0.2682
     29 C          64.4102   91.3695   14.1859 C.2     1  UNL1        0.4022
     30 O          62.9128   91.4409   14.2359 O.2     1  UNL1       -0.2264
     31 H          66.1061   91.4410   12.8387 H       1  UNL1        0.1530
     32 O          65.1946   91.1797   15.4503 O.3     1  UNL1       -0.4291
     33 C          65.9589   92.3287   16.0383 C.3     1  UNL1        0.2447
     34 C          67.3579   92.6129   15.5777 C.ar    1  UNL1        0.0714
     35 C          68.0571   91.9562   14.4246 C.ar    1  UNL1        0.1053
     36 N          69.4346   92.5412   14.3235 N.ar    1  UNL1       -0.2350
     37 C          69.5867   93.5596   15.4143 C.ar    1  UNL1        0.1343
     38 S          68.3033   93.6039   16.1894 S.2     1  UNL1       -0.0652
     39 C          64.6383   92.8386   10.7058 C.3     1  UNL1        0.0505
     40 C          66.0407   93.0756   10.2290 C.ar    1  UNL1       -0.0202
     41 C          66.4257   94.4116    9.6660 C.ar    1  UNL1       -0.0042
     42 C          67.8280   94.6486    9.1892 C.ar    1  UNL1       -0.0003
     43 C          68.8453   93.5497    9.2755 C.ar    1  UNL1       -0.0000
     44 C          68.4603   92.2137    9.8385 C.ar    1  UNL1       -0.0003
     45 C          67.0580   91.9767   10.3152 C.ar    1  UNL1       -0.0042
     46 C          60.6267   89.0132   11.2259 C.3     1  UNL1        0.0504
     47 C          60.1455   88.6434    9.8541 C.ar    1  UNL1       -0.0202
     48 C          60.2535   89.6306    8.7300 C.ar    1  UNL1       -0.0042
     49 C          59.7724   89.2608    7.3582 C.ar    1  UNL1       -0.0003
     50 C          59.1833   87.9038    7.1106 C.ar    1  UNL1       -0.0000
     51 C          59.0752   86.9165    8.2347 C.ar    1  UNL1       -0.0003
     52 C          59.5564   87.2863    9.6065 C.ar    1  UNL1       -0.0042
@<TRIPOS>BOND
     1    19    20    1
     2    20    21    1
     3    20    14    1
     4    14    15   ar
     5    15    16   ar
     6    16    13    1
     7    13     7    1
     8     7     8    1
     9     7     9   am
    10     9    10    2
    11     9    11   am
    12     6    11    1
    13     6     2    1
    14     2     3    2
    15     2     4   am
    16     4     1    1
    17     1    25    1
    18    25    26    2
    19    26    27    1
    20    27    39    1
    21    39    40    1
    22    40    41   ar
    23    41    42   ar
    24    42    43   ar
    25    43    44   ar
    26    44    45   ar
    27    27    28    1
    28    28    29   am
    29    29    30    2
    30    29    32    1
    31    32    33    1
    32    33    34    1
    33    34    35   ar
    34    35    36   ar
    35    36    37   ar
    36    37    38   ar
    37     1    46    1
    38    46    47    1
    39    47    48   ar
    40    48    49   ar
    41    49    50   ar
    42    50    51   ar
    43    51    52   ar
    44     6    22    1
    45    22    23    1
    46    22    24    1
    47    16    17   ar
    48    17    18   ar
    49    18    14   ar
    50    45    40   ar
    51    38    34   ar
    52    52    47   ar
    53    11    12    1
    54     4     5    1
    55    28    31    1
@<TRIPOS>MOLECULE
*****
 52 55 0 0 0
SMALL
GASTEIGER

@<TRIPOS>ATOM
      1 C          62.3986   88.8967   11.1407 C.3     1  UNL1        0.0979
      2 C          60.5539   88.4707    9.3615 C.2     1  UNL1        0.2406
      3 O          59.5051   88.5441   10.4313 O.2     1  UNL1       -0.2733
      4 N          62.0007   88.6470    9.7162 N.am    1  UNL1       -0.3006
      5 H          62.6891   88.5988    9.0140 H       1  UNL1        0.1497
      6 C          60.1560   88.2210    7.9370 C.3     1  UNL1        0.1496
      7 N          58.9938   91.0089    5.3627 N.am    1  UNL1       -0.2567
      8 C          57.7237   91.5641    4.7893 C.3     1  UNL1        0.1168
      9 C          58.9399   89.8926    6.3631 C.2     1  UNL1        0.3046
     10 O          57.6160   89.3314    6.7902 O.2     1  UNL1       -0.2526
     11 N          60.2099   89.3374    6.9365 N.am    1  UNL1       -0.2824
     12 H          61.0789   89.7057    6.6562 H       1  UNL1        0.1514
     13 C          60.3177   91.5700    4.9357 C.3     1  UNL1        0.1413
     14 C          59.9425   93.3821    1.5237 C.ar    1  UNL1        0.0875
     15 N          59.3562   92.8642    2.8035 N.ar    1  UNL1       -0.2453
     16 C          60.4583   92.2199    3.5910 C.ar    1  UNL1        0.0858
     17 C          61.7258   92.3396    2.7979 C.ar    1  UNL1        0.0530
     18 S          61.4071   93.0578    1.5202 S.2     1  UNL1       -0.0705
     19 C          59.5023   95.5359    0.1390 C.3     1  UNL1        0.0069
     20 C          59.1954   94.0984    0.4380 C.3     1  UNL1        0.0465
     21 C          58.1414   93.3772   -0.3488 C.3     1  UNL1        0.0069
     22 C          59.7042   86.8550    7.5129 C.3     1  UNL1        0.0270
     23 C          58.2690   86.4534    7.6827 C.3     1  UNL1        0.0022
     24 C          60.6876   85.8907    6.9189 C.3     1  UNL1        0.0022
     25 C          62.8211   87.7520   12.0131 C.2     1  UNL1       -0.0095
     26 C          62.5189   86.3423   11.5991 C.2     1  UNL1       -0.0094
     27 C          62.9414   85.1975   12.4715 C.3     1  UNL1        0.1011
     28 N          62.9269   85.3468   13.9640 N.am    1  UNL1       -0.2682
     29 C          64.1544   85.0210   14.7623 C.2     1  UNL1        0.4022
     30 O          65.3963   84.5459   14.0681 O.2     1  UNL1       -0.2264
     31 H          62.1118   85.6585   14.4196 H       1  UNL1        0.1530
     32 O          64.1399   85.1702   16.2548 O.3     1  UNL1       -0.4291
     33 C          63.2866   86.2248   16.8948 C.3     1  UNL1        0.2447
     34 C          63.4317   87.6596   16.4819 C.ar    1  UNL1        0.0714
     35 C          64.1586   88.1587   15.2684 C.ar    1  UNL1        0.1053
     36 N          64.0515   89.6547   15.2465 N.ar    1  UNL1       -0.2350
     37 C          63.2585   90.0802   16.4465 C.ar    1  UNL1        0.1343
     38 S          62.8754   88.8472   17.2100 S.2     1  UNL1       -0.0652
     39 C          63.3784   83.9035   11.8514 C.3     1  UNL1        0.0505
     40 C          62.8853   82.6008   12.4081 C.ar    1  UNL1       -0.0202
     41 C          62.0243   82.5879   13.6363 C.ar    1  UNL1       -0.0042
     42 C          61.5312   81.2852   14.1929 C.ar    1  UNL1       -0.0003
     43 C          61.8991   79.9954   13.5213 C.ar    1  UNL1       -0.0000
     44 C          62.7601   80.0083   12.2931 C.ar    1  UNL1       -0.0003
     45 C          63.2532   81.3109   11.7365 C.ar    1  UNL1       -0.0042
     46 C          62.3740   90.2912   11.6929 C.3     1  UNL1        0.0504
     47 C          63.6135   91.1352   11.6541 C.ar    1  UNL1       -0.0202
     48 C          64.4066   91.3610   12.9071 C.ar    1  UNL1       -0.0042
     49 C          65.6460   92.2050   12.8683 C.ar    1  UNL1       -0.0003
     50 C          66.0923   92.8231   11.5766 C.ar    1  UNL1       -0.0000
     51 C          65.2992   92.5973   10.3235 C.ar    1  UNL1       -0.0003
     52 C          64.0598   91.7533   10.3623 C.ar    1  UNL1       -0.0042
@<TRIPOS>BOND
     1    19    20    1
     2    20    21    1
     3    20    14    1
     4    14    15   ar
     5    15    16   ar
     6    16    13    1
     7    13     7    1
     8     7     8    1
     9     7     9   am
    10     9    10    2
    11     9    11   am
    12     6    11    1
    13     6     2    1
    14     2     3    2
    15     2     4   am
    16     4     1    1
    17     1    25    1
    18    25    26    2
    19    26    27    1
    20    27    39    1
    21    39    40    1
    22    40    41   ar
    23    41    42   ar
    24    42    43   ar
    25    43    44   ar
    26    44    45   ar
    27    27    28    1
    28    28    29   am
    29    29    30    2
    30    29    32    1
    31    32    33    1
    32    33    34    1
    33    34    35   ar
    34    35    36   ar
    35    36    37   ar
    36    37    38   ar
    37     1    46    1
    38    46    47    1
    39    47    48   ar
    40    48    49   ar
    41    49    50   ar
    42    50    51   ar
    43    51    52   ar
    44     6    22    1
    45    22    23    1
    46    22    24    1
    47    16    17   ar
    48    17    18   ar
    49    18    14   ar
    50    45    40   ar
    51    38    34   ar
    52    52    47   ar
    53    11    12    1
    54     4     5    1
    55    28    31    1
@<TRIPOS>MOLECULE
*****
 52 55 0 0 0
SMALL
GASTEIGER

@<TRIPOS>ATOM
      1 C          63.2603   85.0037   12.8015 C.3     1  UNL1        0.0979
      2 C          64.1338   86.8131   14.4488 C.2     1  UNL1        0.2406
      3 O          65.3747   86.0029   14.6807 O.2     1  UNL1       -0.2733
      4 N          63.0766   86.3135   13.5092 N.am    1  UNL1       -0.3006
      5 H          62.2621   86.8452   13.3570 H       1  UNL1        0.1497
      6 C          63.9501   88.1228   15.1564 C.3     1  UNL1        0.1496
      7 N          63.8932   91.1375   12.5760 N.am    1  UNL1       -0.2567
      8 C          63.1151   91.5877   11.3752 C.3     1  UNL1        0.1168
      9 C          63.5326   89.8553   13.2658 C.2     1  UNL1        0.3046
     10 O          62.3938   89.0233   12.7549 O.2     1  UNL1       -0.2526
     11 N          64.3107   89.4051   14.4666 N.am    1  UNL1       -0.2824
     12 H          65.0581   89.9512   14.8019 H       1  UNL1        0.1514
     13 C          65.0319   91.9695   13.0869 C.3     1  UNL1        0.1413
     14 C          67.0838   93.6512   10.2537 C.ar    1  UNL1        0.0875
     15 N          66.4449   92.4407   10.8673 N.ar    1  UNL1       -0.2453
     16 C          65.7886   92.8622   12.1486 C.ar    1  UNL1        0.0858
     17 C          66.0219   94.3332   12.3268 C.ar    1  UNL1        0.0530
     18 S          66.8223   94.8209   11.1557 S.2     1  UNL1       -0.0705
     19 C          67.7073   94.8578    8.0388 C.3     1  UNL1        0.0069
     20 C          67.8496   93.6860    8.9644 C.3     1  UNL1        0.0465
     21 C          68.7579   92.5490    8.6006 C.3     1  UNL1        0.0069
     22 C          63.4057   88.1504   16.5539 C.3     1  UNL1        0.0270
     23 C          63.1326   89.4629   17.2267 C.3     1  UNL1        0.0022
     24 C          63.1344   86.8654   17.2785 C.3     1  UNL1        0.0022
     25 C          62.9325   84.8872   11.3425 C.2     1  UNL1       -0.0095
     26 C          62.3960   86.0732   10.5973 C.2     1  UNL1       -0.0094
     27 C          62.0682   85.9567    9.1381 C.3     1  UNL1        0.1011
     28 N          60.9016   86.7085    8.5691 N.am    1  UNL1       -0.2682
     29 C          60.7749   88.1849    8.8025 C.2     1  UNL1        0.4022
     30 O          61.8149   88.9093    9.6048 O.2     1  UNL1       -0.2264
     31 H          60.2190   86.2331    8.0425 H       1  UNL1        0.1530
     32 O          59.6083   88.9368    8.2335 O.3     1  UNL1       -0.4291
     33 C          59.2745   88.8125    6.7765 C.3     1  UNL1        0.2447
     34 C          59.0424   90.0442    5.9524 C.ar    1  UNL1        0.0714
     35 C          57.7144   90.6870    5.6824 C.ar    1  UNL1        0.1053
     36 N          57.9488   91.8895    4.8168 N.ar    1  UNL1       -0.2350
     37 C          59.4218   91.9897    4.5519 C.ar    1  UNL1        0.1343
     38 S          60.0977   90.8493    5.2537 S.2     1  UNL1       -0.0652
     39 C          62.9069   85.0883    8.2480 C.3     1  UNL1        0.0505
     40 C          62.4168   84.7236    6.8780 C.ar    1  UNL1       -0.0202
     41 C          63.3172   84.8911    5.6901 C.ar    1  UNL1       -0.0042
     42 C          62.8271   84.5264    4.3202 C.ar    1  UNL1       -0.0003
     43 C          61.4365   83.9942    4.1382 C.ar    1  UNL1       -0.0000
     44 C          60.5361   83.8267    5.3261 C.ar    1  UNL1       -0.0003
     45 C          61.0263   84.1914    6.6960 C.ar    1  UNL1       -0.0042
     46 C          63.7718   83.8105   13.5530 C.3     1  UNL1        0.0504
     47 C          63.0339   82.5065   13.4818 C.ar    1  UNL1       -0.0202
     48 C          63.4998   81.4313   12.5454 C.ar    1  UNL1       -0.0042
     49 C          62.7619   80.1273   12.4742 C.ar    1  UNL1       -0.0003
     50 C          61.5582   79.8985   13.3393 C.ar    1  UNL1       -0.0000
     51 C          61.0922   80.9737   14.2758 C.ar    1  UNL1       -0.0003
     52 C          61.8301   82.2777   14.3470 C.ar    1  UNL1       -0.0042
@<TRIPOS>BOND
     1    19    20    1
     2    20    21    1
     3    20    14    1
     4    14    15   ar
     5    15    16   ar
     6    16    13    1
     7    13     7    1
     8     7     8    1
     9     7     9   am
    10     9    10    2
    11     9    11   am
    12     6    11    1
    13     6     2    1
    14     2     3    2
    15     2     4   am
    16     4     1    1
    17     1    25    1
    18    25    26    2
    19    26    27    1
    20    27    39    1
    21    39    40    1
    22    40    41   ar
    23    41    42   ar
    24    42    43   ar
    25    43    44   ar
    26    44    45   ar
    27    27    28    1
    28    28    29   am
    29    29    30    2
    30    29    32    1
    31    32    33    1
    32    33    34    1
    33    34    35   ar
    34    35    36   ar
    35    36    37   ar
    36    37    38   ar
    37     1    46    1
    38    46    47    1
    39    47    48   ar
    40    48    49   ar
    41    49    50   ar
    42    50    51   ar
    43    51    52   ar
    44     6    22    1
    45    22    23    1
    46    22    24    1
    47    16    17   ar
    48    17    18   ar
    49    18    14   ar
    50    45    40   ar
    51    38    34   ar
    52    52    47   ar
    53    11    12    1
    54     4     5    1
    55    28    31    1
@<TRIPOS>MOLECULE
*****
 52 55 0 0 0
SMALL
GASTEIGER

@<TRIPOS>ATOM
      1 C          62.6541   88.9701   11.4287 C.3     1  UNL1        0.0979
      2 C          60.8704   88.9638    9.5396 C.2     1  UNL1        0.2406
      3 O          59.9708   89.8145   10.3862 O.2     1  UNL1       -0.2733
      4 N          62.2121   88.5415   10.0608 N.am    1  UNL1       -0.3006
      5 H          62.8026   87.9832    9.5051 H       1  UNL1        0.1497
      6 C          60.4284   88.5352    8.1718 C.3     1  UNL1        0.1496
      7 N          59.1411   90.9508    5.2981 N.am    1  UNL1       -0.2567
      8 C          57.8456   91.3982    4.6886 C.3     1  UNL1        0.1168
      9 C          59.1371   89.9668    6.4301 C.2     1  UNL1        0.3046
     10 O          57.8374   89.4301    6.9528 O.2     1  UNL1       -0.2526
     11 N          60.4326   89.5193    7.0396 N.am    1  UNL1       -0.2824
     12 H          61.2855   89.8715    6.6967 H       1  UNL1        0.1514
     13 C          60.4407   91.4874    4.7755 C.3     1  UNL1        0.1413
     14 C          59.8128   93.3031    1.4029 C.ar    1  UNL1        0.0875
     15 N          59.3074   92.6982    2.6791 N.ar    1  UNL1       -0.2453
     16 C          60.4872   92.1728    3.4420 C.ar    1  UNL1        0.0858
     17 C          61.7217   92.4530    2.6373 C.ar    1  UNL1        0.0530
     18 S          61.3049   93.1516    1.3771 S.2     1  UNL1       -0.0705
     19 C          58.0142   93.1180   -0.4628 C.3     1  UNL1        0.0069
     20 C          58.9733   93.9466    0.3393 C.3     1  UNL1        0.0465
     21 C          59.0931   95.4188    0.0777 C.3     1  UNL1        0.0069
     22 C          59.9824   87.1227    7.9360 C.3     1  UNL1        0.0270
     23 C          58.5191   86.7948    7.8974 C.3     1  UNL1        0.0022
     24 C          60.9995   86.0380    7.7388 C.3     1  UNL1        0.0022
     25 C          63.1743   87.9537   12.4015 C.2     1  UNL1       -0.0095
     26 C          62.9361   86.4928   12.1589 C.2     1  UNL1       -0.0094
     27 C          63.4563   85.4764   13.1317 C.3     1  UNL1        0.1011
     28 N          63.0242   84.0441   13.0227 N.am    1  UNL1       -0.2682
     29 C          62.0755   83.4680   14.0318 C.2     1  UNL1        0.4022
     30 O          61.5590   84.3242   15.1498 O.2     1  UNL1       -0.2264
     31 H          63.3632   83.4821   12.2889 H       1  UNL1        0.1530
     32 O          61.6435   82.0358   13.9228 O.3     1  UNL1       -0.4291
     33 C          62.6561   80.9664   13.6382 C.3     1  UNL1        0.2447
     34 C          62.7718   80.3912   12.2577 C.ar    1  UNL1        0.0714
     35 C          62.5575   78.9555   11.8800 C.ar    1  UNL1        0.1053
     36 N          62.7753   78.8277   10.4014 N.ar    1  UNL1       -0.2350
     37 C          63.1242   80.1845    9.8653 C.ar    1  UNL1        0.1343
     38 S          63.1220   81.1508   11.0126 S.2     1  UNL1       -0.0652
     39 C          64.4085   85.8922   14.2135 C.3     1  UNL1        0.0505
     40 C          63.9011   86.6319   15.4157 C.ar    1  UNL1       -0.0202
     41 C          63.4427   85.8725   16.6253 C.ar    1  UNL1       -0.0042
     42 C          62.9354   86.6122   17.8275 C.ar    1  UNL1       -0.0003
     43 C          62.8864   88.1114   17.8201 C.ar    1  UNL1       -0.0000
     44 C          63.3448   88.8709   16.6106 C.ar    1  UNL1       -0.0003
     45 C          63.8522   88.1311   15.4084 C.ar    1  UNL1       -0.0042
     46 C          62.5759   90.4151   11.8237 C.3     1  UNL1        0.0504
     47 C          63.8339   91.1967   12.0614 C.ar    1  UNL1       -0.0202
     48 C          64.4366   92.0039   10.9501 C.ar    1  UNL1       -0.0042
     49 C          65.6946   92.7856   11.1878 C.ar    1  UNL1       -0.0003
     50 C          66.3498   92.7601   12.5369 C.ar    1  UNL1       -0.0000
     51 C          65.7470   91.9529   13.6483 C.ar    1  UNL1       -0.0003
     52 C          64.4891   91.1712   13.4106 C.ar    1  UNL1       -0.0042
@<TRIPOS>BOND
     1    19    20    1
     2    20    21    1
     3    20    14    1
     4    14    15   ar
     5    15    16   ar
     6    16    13    1
     7    13     7    1
     8     7     8    1
     9     7     9   am
    10     9    10    2
    11     9    11   am
    12     6    11    1
    13     6     2    1
    14     2     3    2
    15     2     4   am
    16     4     1    1
    17     1    25    1
    18    25    26    2
    19    26    27    1
    20    27    39    1
    21    39    40    1
    22    40    41   ar
    23    41    42   ar
    24    42    43   ar
    25    43    44   ar
    26    44    45   ar
    27    27    28    1
    28    28    29   am
    29    29    30    2
    30    29    32    1
    31    32    33    1
    32    33    34    1
    33    34    35   ar
    34    35    36   ar
    35    36    37   ar
    36    37    38   ar
    37     1    46    1
    38    46    47    1
    39    47    48   ar
    40    48    49   ar
    41    49    50   ar
    42    50    51   ar
    43    51    52   ar
    44     6    22    1
    45    22    23    1
    46    22    24    1
    47    16    17   ar
    48    17    18   ar
    49    18    14   ar
    50    45    40   ar
    51    38    34   ar
    52    52    47   ar
    53    11    12    1
    54     4     5    1
    55    28    31    1
@<TRIPOS>MOLECULE
*****
 52 55 0 0 0
SMALL
GASTEIGER

@<TRIPOS>ATOM
      1 C          63.8648   86.9161   13.7278 C.3     1  UNL1        0.0979
      2 C          63.5916   89.3731   14.5268 C.2     1  UNL1        0.2406
      3 O          62.1654   89.0938   14.8982 O.2     1  UNL1       -0.2733
      4 N          64.4413   88.2843   13.9416 N.am    1  UNL1       -0.3006
      5 H          65.3774   88.4676   13.6979 H       1  UNL1        0.1497
      6 C          64.1680   90.7413   14.7406 C.3     1  UNL1        0.1496
      7 N          64.4492   92.2344   11.0743 N.am    1  UNL1       -0.2567
      8 C          63.7513   92.1294    9.7507 C.3     1  UNL1        0.1168
      9 C          63.9597   91.4354   12.2456 C.2     1  UNL1        0.3046
     10 O          62.7724   90.5314   12.0933 O.2     1  UNL1       -0.2526
     11 N          64.6575   91.5404   13.5693 N.am    1  UNL1       -0.2824
     12 H          65.4368   92.1337   13.6692 H       1  UNL1        0.1514
     13 C          65.6364   93.1383   11.2266 C.3     1  UNL1        0.1413
     14 C          68.1158   92.7301   14.1850 C.ar    1  UNL1        0.0875
     15 N          66.9012   93.3608   13.5710 N.ar    1  UNL1       -0.2453
     16 C          66.7264   92.7879   12.1958 C.ar    1  UNL1        0.0858
     17 C          67.8330   91.8032   11.9598 C.ar    1  UNL1        0.0530
     18 S          68.6917   91.7674   13.1891 S.2     1  UNL1       -0.0705
     19 C          69.0822   94.4040   15.9211 C.3     1  UNL1        0.0069
     20 C          68.6591   93.0124   15.5543 C.3     1  UNL1        0.0465
     21 C          68.7793   91.9032   16.5569 C.3     1  UNL1        0.0069
     22 C          64.2550   91.3105   16.1257 C.3     1  UNL1        0.0270
     23 C          63.4992   90.6666   17.2500 C.3     1  UNL1        0.0022
     24 C          65.0979   92.5236   16.3864 C.3     1  UNL1        0.0022
     25 C          63.1013   86.6116   12.4731 C.2     1  UNL1       -0.0095
     26 C          62.6581   87.7284   11.5753 C.2     1  UNL1       -0.0094
     27 C          61.8946   87.4239   10.3205 C.3     1  UNL1        0.1011
     28 N          61.5113   88.5343    9.3877 N.am    1  UNL1       -0.2682
     29 C          60.0824   88.6956    8.9607 C.2     1  UNL1        0.4022
     30 O          59.0368   87.7464    9.4665 O.2     1  UNL1       -0.2264
     31 H          62.1975   89.1573    9.0557 H       1  UNL1        0.1530
     32 O          59.6991   89.8060    8.0279 O.3     1  UNL1       -0.4291
     33 C          59.3215   89.4972    6.6095 C.3     1  UNL1        0.2447
     34 C          59.1552   90.6107    5.6182 C.ar    1  UNL1        0.0714
     35 C          57.8591   91.2562    5.2265 C.ar    1  UNL1        0.1053
     36 N          58.1587   92.3187    4.2109 N.ar    1  UNL1       -0.2350
     37 C          59.6400   92.3298    3.9749 C.ar    1  UNL1        0.1343
     38 S          60.2559   91.2743    4.8447 S.2     1  UNL1       -0.0652
     39 C          61.5144   86.0091    9.9985 C.3     1  UNL1        0.0505
     40 C          61.6851   85.4856    8.6032 C.ar    1  UNL1       -0.0202
     41 C          63.0404   85.0582    8.1232 C.ar    1  UNL1       -0.0042
     42 C          63.2111   84.5347    6.7279 C.ar    1  UNL1       -0.0003
     43 C          62.0265   84.4385    5.8128 C.ar    1  UNL1       -0.0000
     44 C          60.6713   84.8659    6.2928 C.ar    1  UNL1       -0.0003
     45 C          60.5006   85.3894    7.6881 C.ar    1  UNL1       -0.0042
     46 C          64.0519   85.8524   14.7688 C.3     1  UNL1        0.0504
     47 C          63.6828   84.4309   14.4634 C.ar    1  UNL1       -0.0202
     48 C          62.3968   83.8614   14.9845 C.ar    1  UNL1       -0.0042
     49 C          62.0277   82.4399   14.6791 C.ar    1  UNL1       -0.0003
     50 C          62.9447   81.5880   13.8524 C.ar    1  UNL1       -0.0000
     51 C          64.2308   82.1576   13.3312 C.ar    1  UNL1       -0.0003
     52 C          64.5998   83.5790   13.6367 C.ar    1  UNL1       -0.0042
@<TRIPOS>BOND
     1    19    20    1
     2    20    21    1
     3    20    14    1
     4    14    15   ar
     5    15    16   ar
     6    16    13    1
     7    13     7    1
     8     7     8    1
     9     7     9   am
    10     9    10    2
    11     9    11   am
    12     6    11    1
    13     6     2    1
    14     2     3    2
    15     2     4   am
    16     4     1    1
    17     1    25    1
    18    25    26    2
    19    26    27    1
    20    27    39    1
    21    39    40    1
    22    40    41   ar
    23    41    42   ar
    24    42    43   ar
    25    43    44   ar
    26    44    45   ar
    27    27    28    1
    28    28    29   am
    29    29    30    2
    30    29    32    1
    31    32    33    1
    32    33    34    1
    33    34    35   ar
    34    35    36   ar
    35    36    37   ar
    36    37    38   ar
    37     1    46    1
    38    46    47    1
    39    47    48   ar
    40    48    49   ar
    41    49    50   ar
    42    50    51   ar
    43    51    52   ar
    44     6    22    1
    45    22    23    1
    46    22    24    1
    47    16    17   ar
    48    17    18   ar
    49    18    14   ar
    50    45    40   ar
    51    38    34   ar
    52    52    47   ar
    53    11    12    1
    54     4     5    1
    55    28    31    1
@<TRIPOS>MOLECULE
*****
 52 55 0 0 0
SMALL
GASTEIGER

@<TRIPOS>ATOM
      1 C          62.5663   88.7025   11.4004 C.3     1  UNL1        0.0979
      2 C          60.8941   88.8601    9.4182 C.2     1  UNL1        0.2406
      3 O          60.1062   89.8951   10.1652 O.2     1  UNL1       -0.2733
      4 N          62.1242   88.2638   10.0358 N.am    1  UNL1       -0.3006
      5 H          62.6413   87.5844    9.5456 H       1  UNL1        0.1497
      6 C          60.4520   88.4213    8.0537 C.3     1  UNL1        0.1496
      7 N          59.4167   90.9433    5.1696 N.am    1  UNL1       -0.2567
      8 C          58.1786   91.5766    4.6075 C.3     1  UNL1        0.1168
      9 C          59.3153   89.9990    6.3306 C.2     1  UNL1        0.3046
     10 O          57.9757   89.6878    6.9295 O.2     1  UNL1       -0.2526
     11 N          60.5535   89.3657    6.8927 N.am    1  UNL1       -0.2824
     12 H          61.4327   89.5699    6.4996 H       1  UNL1        0.1514
     13 C          60.7563   91.2545    4.5708 C.3     1  UNL1        0.1413
     14 C          61.6471   93.3320    1.4155 C.ar    1  UNL1        0.0875
     15 N          61.9393   92.2172    2.3756 N.ar    1  UNL1       -0.2453
     16 C          60.8588   92.2064    3.4160 C.ar    1  UNL1        0.0858
     17 C          59.8988   93.3144    3.0989 C.ar    1  UNL1        0.0530
     18 S          60.3860   94.0102    1.8625 S.2     1  UNL1       -0.0705
     19 C          63.7632   94.4442    0.3980 C.3     1  UNL1        0.0069
     20 C          62.4713   93.7035    0.2185 C.3     1  UNL1        0.0465
     21 C          62.0035   93.3343   -1.1580 C.3     1  UNL1        0.0069
     22 C          59.9084   87.0382    7.8501 C.3     1  UNL1        0.0270
     23 C          60.8435   85.8974    7.5778 C.3     1  UNL1        0.0022
     24 C          58.4297   86.7959    7.9188 C.3     1  UNL1        0.0022
     25 C          63.1749   87.7105   12.3466 C.2     1  UNL1       -0.0095
     26 C          62.9319   86.2430   12.1532 C.2     1  UNL1       -0.0094
     27 C          63.5405   85.2509   13.0995 C.3     1  UNL1        0.1011
     28 N          63.2338   83.7898   12.9538 N.am    1  UNL1       -0.2682
     29 C          63.9302   82.9786   11.9015 C.2     1  UNL1        0.4022
     30 O          64.9332   83.6285   10.9951 O.2     1  UNL1       -0.2264
     31 H          62.5755   83.3633   13.5487 H       1  UNL1        0.1530
     32 O          63.6235   81.5176   11.7557 O.3     1  UNL1       -0.4291
     33 C          63.4247   80.6676   12.9756 C.3     1  UNL1        0.2447
     34 C          62.0433   80.4395   13.5137 C.ar    1  UNL1        0.0714
     35 C          61.1315   81.4895   14.0759 C.ar    1  UNL1        0.1053
     36 N          59.8558   80.8203   14.4938 N.ar    1  UNL1       -0.2350
     37 C          59.9791   79.3565   14.1899 C.ar    1  UNL1        0.1343
     38 S          61.3310   79.1212   13.5842 S.2     1  UNL1       -0.0652
     39 C          64.4557   85.7198   14.1915 C.3     1  UNL1        0.0505
     40 C          63.8960   86.4440   15.3799 C.ar    1  UNL1       -0.0202
     41 C          63.9179   87.9432   15.4233 C.ar    1  UNL1       -0.0042
     42 C          63.3581   88.6674   16.6116 C.ar    1  UNL1       -0.0003
     43 C          62.7765   87.8923   17.7566 C.ar    1  UNL1       -0.0000
     44 C          62.7546   86.3931   17.7133 C.ar    1  UNL1       -0.0003
     45 C          63.3144   85.6690   16.5249 C.ar    1  UNL1       -0.0042
     46 C          62.3999   90.1334   11.8187 C.3     1  UNL1        0.0504
     47 C          63.5999   91.0263   11.9315 C.ar    1  UNL1       -0.0202
     48 C          64.3143   91.1604   13.2436 C.ar    1  UNL1       -0.0042
     49 C          65.5143   92.0532   13.3564 C.ar    1  UNL1       -0.0003
     50 C          66.0000   92.8120   12.1571 C.ar    1  UNL1       -0.0000
     51 C          65.2856   92.6779   10.8449 C.ar    1  UNL1       -0.0003
     52 C          64.0856   91.7851   10.7321 C.ar    1  UNL1       -0.0042
@<TRIPOS>BOND
     1    19    20    1
     2    20    21    1
     3    20    14    1
     4    14    15   ar
     5    15    16   ar
     6    16    13    1
     7    13     7    1
     8     7     8    1
     9     7     9   am
    10     9    10    2
    11     9    11   am
    12     6    11    1
    13     6     2    1
    14     2     3    2
    15     2     4   am
    16     4     1    1
    17     1    25    1
    18    25    26    2
    19    26    27    1
    20    27    39    1
    21    39    40    1
    22    40    41   ar
    23    41    42   ar
    24    42    43   ar
    25    43    44   ar
    26    44    45   ar
    27    27    28    1
    28    28    29   am
    29    29    30    2
    30    29    32    1
    31    32    33    1
    32    33    34    1
    33    34    35   ar
    34    35    36   ar
    35    36    37   ar
    36    37    38   ar
    37     1    46    1
    38    46    47    1
    39    47    48   ar
    40    48    49   ar
    41    49    50   ar
    42    50    51   ar
    43    51    52   ar
    44     6    22    1
    45    22    23    1
    46    22    24    1
    47    16    17   ar
    48    17    18   ar
    49    18    14   ar
    50    45    40   ar
    51    38    34   ar
    52    52    47   ar
    53    11    12    1
    54     4     5    1
    55    28    31    1
