@<TRIPOS>MOLECULE
*****
 33 37 0 0 0
SMALL
GASTEIGER

@<TRIPOS>ATOM
      1 C          61.7762   89.5317   11.7470 C.3     1  UNL1        0.1096
      2 C          61.0131   90.5943   11.0128 C.3     1  UNL1        0.1622
      3 O          60.4797   90.3201    9.6380 O.3     1  UNL1       -0.3502
      4 C          60.7094   88.9835    8.9972 C.3     1  UNL1        0.1637
      5 C          61.4724   87.9210    9.7312 C.3     1  UNL1        0.1257
      6 N          62.0058   88.1951   11.1061 N.am    1  UNL1       -0.2723
      7 C          62.7688   87.1326   11.8402 C.2     1  UNL1        0.2506
      8 O          63.3022   87.4067   13.2151 O.2     1  UNL1       -0.2699
      9 C          62.9984   85.7959   11.1994 C.ar    1  UNL1        0.0726
     10 C          62.9892   85.6692    9.7048 C.ar    1  UNL1        0.0061
     11 C          63.2188   84.3326    9.0640 C.ar    1  UNL1       -0.0001
     12 C          63.4576   83.1227    9.9177 C.ar    1  UNL1       -0.0027
     13 C          63.4669   83.2493   11.4124 C.ar    1  UNL1       -0.0023
     14 C          63.7058   82.0394   12.2662 C.3     1  UNL1        0.0327
     15 C          63.2373   84.5860   12.0532 C.ar    1  UNL1        0.1032
     16 N          63.2465   84.7127   13.5478 N.ar    1  UNL1       -0.1480
     17 N          64.4488   84.9863   14.4020 N.ar    1  UNL1       -0.1447
     18 C          64.0005   85.0308   15.8328 C.ar    1  UNL1        0.1446
     19 C          62.5211   84.7846   15.8628 C.ar    1  UNL1        0.1446
     20 N          62.0552   84.5880   14.4506 N.ar    1  UNL1       -0.1447
     21 C          62.3096   89.8059   13.1218 C.3     1  UNL1        0.0484
     22 C          63.7719   89.6743   15.7380 C.3     1  UNL1        0.0307
     23 C          64.3432   90.4648   14.5984 C.ar    1  UNL1       -0.0256
     24 C          65.6457   91.1895   14.7669 C.ar    1  UNL1       -0.0030
     25 C          66.2169   91.9800   13.6272 C.ar    1  UNL1        0.0188
     26 C          65.4858   92.0458   12.3192 C.ar    1  UNL1        0.0825
     27 C          64.1833   91.3211   12.1507 C.ar    1  UNL1        0.0146
     28 C          63.6120   90.5306   13.2903 C.ar    1  UNL1       -0.0229
     29 N          66.0570   92.8364   11.1795 N.ar    1  UNL1       -0.2282
     30 C          67.2267   92.4380   10.3291 C.ar    1  UNL1        0.1020
     31 C          67.4515   93.5194    9.3142 C.ar    1  UNL1        0.0431
     32 C          66.4208   94.5862    9.5374 C.ar    1  UNL1        0.1221
     33 N          65.5590   94.1640   10.6903 N.ar    1  UNL1       -0.1635
@<TRIPOS>BOND
     1    22    23    1
     2    23    24   ar
     3    24    25   ar
     4    25    26   ar
     5    26    29    1
     6    29    30   ar
     7    30    31   ar
     8    31    32   ar
     9    32    33   ar
    10    26    27   ar
    11    27    28   ar
    12    28    21    1
    13     1    21    1
    14     1     2    1
    15     2     3    1
    16     3     4    1
    17     4     5    1
    18     5     6    1
    19     6     7   am
    20     7     8    2
    21     7     9    1
    22     9    10   ar
    23    10    11   ar
    24    11    12   ar
    25    12    13   ar
    26    13    14    1
    27    13    15   ar
    28    15    16    1
    29    16    17   ar
    30    17    18   ar
    31    18    19   ar
    32    19    20   ar
    33    28    23   ar
    34     6     1    1
    35    15     9   ar
    36    20    16   ar
    37    33    29   ar
@<TRIPOS>MOLECULE
*****
 33 37 0 0 0
SMALL
GASTEIGER

@<TRIPOS>ATOM
      1 C          61.3964   88.9130   11.4690 C.3     1  UNL1        0.1096
      2 C          60.3336   89.6485   10.7077 C.3     1  UNL1        0.1622
      3 O          59.5904   88.9596    9.6018 O.3     1  UNL1       -0.3502
      4 C          59.9100   87.5351    9.2572 C.3     1  UNL1        0.1637
      5 C          60.9727   86.7996   10.0184 C.3     1  UNL1        0.1257
      6 N          61.7159   87.4885   11.1244 N.am    1  UNL1       -0.2723
      7 C          62.7787   86.7530   11.8856 C.2     1  UNL1        0.2506
      8 O          63.5219   87.4420   12.9916 O.2     1  UNL1       -0.2699
      9 C          63.0983   85.3286   11.5410 C.ar    1  UNL1        0.0726
     10 C          63.2056   84.9104   10.1045 C.ar    1  UNL1        0.0061
     11 C          63.5251   83.4859    9.7598 C.ar    1  UNL1       -0.0001
     12 C          63.7374   82.4796   10.8517 C.ar    1  UNL1       -0.0027
     13 C          63.6301   82.8978   12.2883 C.ar    1  UNL1       -0.0023
     14 C          63.8424   81.8914   13.3802 C.3     1  UNL1        0.0327
     15 C          63.3105   84.3222   12.6329 C.ar    1  UNL1        0.1032
     16 N          63.2032   84.7404   14.0694 N.ar    1  UNL1       -0.1480
     17 N          61.9630   84.6915   14.9117 N.ar    1  UNL1       -0.1447
     18 C          62.3106   85.2017   16.2787 C.ar    1  UNL1        0.1446
     19 C          63.7657   85.5660   16.2813 C.ar    1  UNL1        0.1446
     20 N          64.3174   85.2808   14.9159 N.ar    1  UNL1       -0.1447
     21 C          62.1395   89.6019   12.5749 C.3     1  UNL1        0.0484
     22 C          62.4369   90.6947    9.7968 C.3     1  UNL1        0.0307
     23 C          63.4194   91.0791   10.8631 C.ar    1  UNL1       -0.0256
     24 C          64.5506   92.0098   10.5404 C.ar    1  UNL1       -0.0030
     25 C          65.5331   92.3942   11.6067 C.ar    1  UNL1        0.0188
     26 C          65.3844   91.8478   12.9957 C.ar    1  UNL1        0.0825
     27 C          64.2532   90.9171   13.3184 C.ar    1  UNL1        0.0146
     28 C          63.2707   90.5327   12.2522 C.ar    1  UNL1       -0.0229
     29 N          66.3669   92.2322   14.0620 N.ar    1  UNL1       -0.2282
     30 C          66.0538   92.4468   15.5132 C.ar    1  UNL1        0.1020
     31 C          67.3284   92.8167   16.2125 C.ar    1  UNL1        0.0431
     32 C          68.4290   92.8307   15.1934 C.ar    1  UNL1        0.1221
     33 N          67.8347   92.4695   13.8644 N.ar    1  UNL1       -0.1635
@<TRIPOS>BOND
     1    22    23    1
     2    23    24   ar
     3    24    25   ar
     4    25    26   ar
     5    26    29    1
     6    29    30   ar
     7    30    31   ar
     8    31    32   ar
     9    32    33   ar
    10    26    27   ar
    11    27    28   ar
    12    28    21    1
    13     1    21    1
    14     1     2    1
    15     2     3    1
    16     3     4    1
    17     4     5    1
    18     5     6    1
    19     6     7   am
    20     7     8    2
    21     7     9    1
    22     9    10   ar
    23    10    11   ar
    24    11    12   ar
    25    12    13   ar
    26    13    14    1
    27    13    15   ar
    28    15    16    1
    29    16    17   ar
    30    17    18   ar
    31    18    19   ar
    32    19    20   ar
    33    28    23   ar
    34     6     1    1
    35    15     9   ar
    36    20    16   ar
    37    33    29   ar
@<TRIPOS>MOLECULE
*****
 33 37 0 0 0
SMALL
GASTEIGER

@<TRIPOS>ATOM
      1 C          60.8301   87.7166   10.4226 C.3     1  UNL1        0.1096
      2 C          59.7848   87.6734    9.3475 C.3     1  UNL1        0.1622
      3 O          59.5991   88.8488    8.4344 O.3     1  UNL1       -0.3502
      4 C          60.4586   90.0674    8.5962 C.3     1  UNL1        0.1637
      5 C          61.5038   90.1107    9.6711 C.3     1  UNL1        0.1257
      6 N          61.6896   88.9352   10.5843 N.am    1  UNL1       -0.2723
      7 C          62.7349   88.9785   11.6593 C.2     1  UNL1        0.2506
      8 O          62.9207   87.8031   12.5725 O.2     1  UNL1       -0.2699
      9 C          63.5944   90.1971   11.8211 C.ar    1  UNL1        0.0726
     10 C          63.9019   91.0610   10.6340 C.ar    1  UNL1        0.0061
     11 C          64.7614   92.2796   10.7958 C.ar    1  UNL1       -0.0001
     12 C          65.3134   92.6344   12.1446 C.ar    1  UNL1       -0.0027
     13 C          65.0058   91.7706   13.3318 C.ar    1  UNL1       -0.0023
     14 C          65.5578   92.1254   14.6806 C.3     1  UNL1        0.0327
     15 C          64.1463   90.5519   13.1700 C.ar    1  UNL1        0.1032
     16 N          63.8388   89.6881   14.3571 N.ar    1  UNL1       -0.1480
     17 N          62.7943   89.9603   15.3987 N.ar    1  UNL1       -0.1447
     18 C          62.8317   88.8408   16.3963 C.ar    1  UNL1        0.1446
     19 C          63.8994   87.8767   15.9712 C.ar    1  UNL1        0.1446
     20 N          64.5217   88.4003   14.7109 N.ar    1  UNL1       -0.1447
     21 C          61.0159   86.5412   11.3357 C.3     1  UNL1        0.0484
     22 C          62.4599   86.6421    8.7081 C.3     1  UNL1        0.0307
     23 C          62.6402   85.4635    9.6181 C.ar    1  UNL1       -0.0256
     24 C          63.5425   84.3353    9.2144 C.ar    1  UNL1       -0.0030
     25 C          63.7228   83.1566   10.1246 C.ar    1  UNL1        0.0188
     26 C          63.0008   83.1062   11.4384 C.ar    1  UNL1        0.0825
     27 C          62.0985   84.2344   11.8421 C.ar    1  UNL1        0.0146
     28 C          61.9182   85.4130   10.9320 C.ar    1  UNL1       -0.0229
     29 N          63.1810   81.9275   12.3485 N.ar    1  UNL1       -0.2282
     30 C          64.1146   81.8531   13.5202 C.ar    1  UNL1        0.1020
     31 C          63.9700   80.4959   14.1426 C.ar    1  UNL1        0.0431
     32 C          62.9470   79.7317   13.3555 C.ar    1  UNL1        0.1221
     33 N          62.4594   80.6164   12.2467 N.ar    1  UNL1       -0.1635
@<TRIPOS>BOND
     1    22    23    1
     2    23    24   ar
     3    24    25   ar
     4    25    26   ar
     5    26    29    1
     6    29    30   ar
     7    30    31   ar
     8    31    32   ar
     9    32    33   ar
    10    26    27   ar
    11    27    28   ar
    12    28    21    1
    13     1    21    1
    14     1     2    1
    15     2     3    1
    16     3     4    1
    17     4     5    1
    18     5     6    1
    19     6     7   am
    20     7     8    2
    21     7     9    1
    22     9    10   ar
    23    10    11   ar
    24    11    12   ar
    25    12    13   ar
    26    13    14    1
    27    13    15   ar
    28    15    16    1
    29    16    17   ar
    30    17    18   ar
    31    18    19   ar
    32    19    20   ar
    33    28    23   ar
    34     6     1    1
    35    15     9   ar
    36    20    16   ar
    37    33    29   ar
