@<TRIPOS>MOLECULE
*****
 26 28 0 0 0
SMALL
GASTEIGER

@<TRIPOS>ATOM
      1 C          66.2285   94.4181   12.1293 C.2     1  UNL1        0.2520
      2 O          66.9061   95.0969   13.2826 O.2     1  UNL1       -0.2698
      3 N          65.5264   93.1088   12.3370 N.am    1  UNL1       -0.2753
      4 C          64.8488   92.4300   11.1836 C.3     1  UNL1        0.0981
      5 C          64.1468   91.1208   11.3912 C.3     1  UNL1        0.0442
      6 C          64.1224   90.4904   12.7522 C.2     1  UNL1       -0.0326
      7 C          63.4204   89.1812   12.9598 C.2     1  UNL1        0.0412
      8 C          64.8000   91.1692   13.9054 C.3     1  UNL1        0.0442
      9 C          65.5021   92.4784   13.6978 C.3     1  UNL1        0.0981
     10 C          67.2411   94.5793    9.7421 C.ar    1  UNL1        0.1430
     11 C          67.2654   95.2097    8.3813 C.ar    1  UNL1        0.0371
     12 C          66.3015   96.3093    8.0467 C.ar    1  UNL1        0.0031
     13 C          65.3133   96.7784    9.0730 C.ar    1  UNL1        0.0003
     14 C          65.2890   96.1480   10.4338 C.ar    1  UNL1        0.0076
     15 C          66.2529   95.0485   10.7684 C.ar    1  UNL1        0.0875
     16 C          68.5559   92.4501    9.0440 C.3     1  UNL1        0.2525
     17 O          68.2049   93.4798   10.0767 O.3     1  UNL1       -0.4713
     18 C          62.7427   88.5024   11.8065 C.1     1  UNL1       -0.0583
     19 C          62.0651   87.8236   10.6532 C.1     1  UNL1       -0.0405
     20 C          61.3876   87.1448    9.4999 C.ar    1  UNL1        0.1224
     21 C          59.9352   87.4018    9.2264 C.ar    1  UNL1        0.0276
     22 C          59.2576   86.7230    8.0732 C.ar    1  UNL1        0.0034
     23 C          60.0323   85.7872    7.1933 C.ar    1  UNL1        0.0148
     24 C          61.4846   85.5302    7.4667 C.ar    1  UNL1        0.0600
     25 C          62.2593   84.5944    6.5868 C.3     1  UNL1        0.0521
     26 N          62.1623   86.2090    8.6200 N.ar    1  UNL1       -0.2414
@<TRIPOS>BOND
     1    16    17    1
     2    17    10    1
     3    10    11   ar
     4    11    12   ar
     5    12    13   ar
     6    13    14   ar
     7    14    15   ar
     8    15     1    1
     9     1     2    2
    10     1     3   am
    11     3     4    1
    12     4     5    1
    13     5     6    1
    14     6     7    2
    15     7    18    1
    16    18    19    3
    17    19    20    1
    18    20    21   ar
    19    21    22   ar
    20    22    23   ar
    21    23    24   ar
    22    24    25    1
    23    24    26   ar
    24     6     8    1
    25     8     9    1
    26    15    10   ar
    27     9     3    1
    28    26    20   ar
@<TRIPOS>MOLECULE
*****
 26 28 0 0 0
SMALL
GASTEIGER

@<TRIPOS>ATOM
      1 C          63.1399   85.1256   14.8521 C.2     1  UNL1        0.2520
      2 O          62.5085   84.3983   16.0019 O.2     1  UNL1       -0.2698
      3 N          63.4624   86.5855   14.9742 N.am    1  UNL1       -0.2753
      4 C          64.0938   87.3128   13.8243 C.3     1  UNL1        0.0981
      5 C          64.4163   88.7726   13.9464 C.3     1  UNL1        0.0442
      6 C          64.1074   89.5051   15.2185 C.2     1  UNL1       -0.0326
      7 C          64.4299   90.9649   15.3407 C.2     1  UNL1        0.0412
      8 C          63.4760   88.7777   16.3684 C.3     1  UNL1        0.0442
      9 C          63.1535   87.3179   16.2462 C.3     1  UNL1        0.0981
     10 C          62.7195   84.7434   12.3168 C.ar    1  UNL1        0.1430
     11 C          63.0284   84.0109   11.0448 C.ar    1  UNL1        0.0371
     12 C          64.0666   82.9284   11.0359 C.ar    1  UNL1        0.0031
     13 C          64.7959   82.5782   12.2990 C.ar    1  UNL1        0.0003
     14 C          64.4870   83.3106   13.5710 C.ar    1  UNL1        0.0076
     15 C          63.4488   84.3932   13.5799 C.ar    1  UNL1        0.0875
     16 C          61.2271   86.4403   11.0349 C.3     1  UNL1        0.2525
     17 O          61.6812   85.8259   12.3258 O.3     1  UNL1       -0.4713
     18 C          65.0613   91.6923   14.1907 C.1     1  UNL1       -0.0583
     19 C          65.6927   92.4196   13.0408 C.1     1  UNL1       -0.0405
     20 C          66.3240   93.1469   11.8909 C.ar    1  UNL1        0.1224
     21 C          66.0848   94.6168   11.7108 C.ar    1  UNL1        0.0276
     22 C          66.7161   95.3441   10.5609 C.ar    1  UNL1        0.0034
     23 C          67.5868   94.6016    9.5910 C.ar    1  UNL1        0.0148
     24 C          67.8260   93.1318    9.7710 C.ar    1  UNL1        0.0600
     25 C          68.6966   92.3893    8.8011 C.3     1  UNL1        0.0521
     26 N          67.1946   92.4044   10.9210 N.ar    1  UNL1       -0.2414
@<TRIPOS>BOND
     1    16    17    1
     2    17    10    1
     3    10    11   ar
     4    11    12   ar
     5    12    13   ar
     6    13    14   ar
     7    14    15   ar
     8    15     1    1
     9     1     2    2
    10     1     3   am
    11     3     4    1
    12     4     5    1
    13     5     6    1
    14     6     7    2
    15     7    18    1
    16    18    19    3
    17    19    20    1
    18    20    21   ar
    19    21    22   ar
    20    22    23   ar
    21    23    24   ar
    22    24    25    1
    23    24    26   ar
    24     6     8    1
    25     8     9    1
    26    15    10   ar
    27     9     3    1
    28    26    20   ar
@<TRIPOS>MOLECULE
*****
 26 28 0 0 0
SMALL
GASTEIGER

@<TRIPOS>ATOM
      1 C          64.8776   91.6192   15.1842 C.2     1  UNL1        0.2520
      2 O          64.8296   92.7682   16.1472 O.2     1  UNL1       -0.2698
      3 N          64.3105   90.2872   15.5771 N.am    1  UNL1       -0.2753
      4 C          64.3585   89.1381   14.6140 C.3     1  UNL1        0.0981
      5 C          63.7915   87.8062   15.0069 C.3     1  UNL1        0.0442
      6 C          63.1765   87.6233   16.3628 C.2     1  UNL1       -0.0326
      7 C          62.6095   86.2913   16.7556 C.2     1  UNL1        0.0412
      8 C          63.1286   88.7723   17.3258 C.3     1  UNL1        0.0442
      9 C          63.6956   90.1043   16.9329 C.3     1  UNL1        0.0981
     10 C          66.9847   91.8345   13.6797 C.ar    1  UNL1        0.1430
     11 C          67.5996   92.0174   12.3238 C.ar    1  UNL1        0.0371
     12 C          66.7222   92.1679   11.1165 C.ar    1  UNL1        0.0031
     13 C          65.2300   92.1355   11.2651 C.ar    1  UNL1        0.0003
     14 C          64.6151   91.9526   12.6210 C.ar    1  UNL1        0.0076
     15 C          65.4925   91.8021   13.8283 C.ar    1  UNL1        0.0875
     16 C          68.4310   92.8996   15.5569 C.3     1  UNL1        0.2525
     17 O          67.8621   91.6840   14.8870 O.3     1  UNL1       -0.4713
     18 C          62.6575   85.1422   15.7926 C.1     1  UNL1       -0.0583
     19 C          62.7054   83.9932   14.8296 C.1     1  UNL1       -0.0405
     20 C          62.7534   82.8441   13.8666 C.ar    1  UNL1        0.1224
     21 C          62.1929   81.5101   14.2622 C.ar    1  UNL1        0.0276
     22 C          62.2408   80.3611   13.2992 C.ar    1  UNL1        0.0034
     23 C          62.8493   80.5460   11.9406 C.ar    1  UNL1        0.0148
     24 C          63.4097   81.8799   11.5451 C.ar    1  UNL1        0.0600
     25 C          64.0182   82.0648   10.1865 C.3     1  UNL1        0.0521
     26 N          63.3618   83.0290   12.5081 N.ar    1  UNL1       -0.2414
@<TRIPOS>BOND
     1    16    17    1
     2    17    10    1
     3    10    11   ar
     4    11    12   ar
     5    12    13   ar
     6    13    14   ar
     7    14    15   ar
     8    15     1    1
     9     1     2    2
    10     1     3   am
    11     3     4    1
    12     4     5    1
    13     5     6    1
    14     6     7    2
    15     7    18    1
    16    18    19    3
    17    19    20    1
    18    20    21   ar
    19    21    22   ar
    20    22    23   ar
    21    23    24   ar
    22    24    25    1
    23    24    26   ar
    24     6     8    1
    25     8     9    1
    26    15    10   ar
    27     9     3    1
    28    26    20   ar
@<TRIPOS>MOLECULE
*****
 26 28 0 0 0
SMALL
GASTEIGER

@<TRIPOS>ATOM
      1 C          65.5312   92.3877   14.3900 C.2     1  UNL1        0.2520
      2 O          65.4933   93.6909   15.1317 O.2     1  UNL1       -0.2698
      3 N          64.8799   91.1710   14.9777 N.am    1  UNL1       -0.2753
      4 C          64.9178   89.8677   14.2359 C.3     1  UNL1        0.0981
      5 C          64.2664   88.6510   14.8236 C.3     1  UNL1        0.0442
      6 C          63.5771   88.7376   16.1531 C.2     1  UNL1       -0.0326
      7 C          62.9258   87.5209   16.7408 C.2     1  UNL1        0.0412
      8 C          63.5392   90.0408   16.8948 C.3     1  UNL1        0.0442
      9 C          64.1906   91.2575   16.3071 C.3     1  UNL1        0.0981
     10 C          67.6749   91.9408   12.9918 C.ar    1  UNL1        0.1430
     11 C          68.3641   91.8543   11.6623 C.ar    1  UNL1        0.0371
     12 C          67.5989   92.1280   10.4016 C.ar    1  UNL1        0.0031
     13 C          66.1444   92.4883   10.4703 C.ar    1  UNL1        0.0003
     14 C          65.4553   92.5749   11.7997 C.ar    1  UNL1        0.0076
     15 C          66.2205   92.3011   13.0605 C.ar    1  UNL1        0.0875
     16 C          68.9405   92.8073   15.0887 C.3     1  UNL1        0.2525
     17 O          68.4402   91.6670   14.2525 O.3     1  UNL1       -0.4713
     18 C          62.9637   86.2177   15.9990 C.1     1  UNL1       -0.0583
     19 C          63.0016   84.9145   15.2572 C.1     1  UNL1       -0.0405
     20 C          63.0395   83.6114   14.5154 C.ar    1  UNL1        0.1224
     21 C          64.2067   83.2852   13.6314 C.ar    1  UNL1        0.0276
     22 C          64.2446   81.9821   12.8896 C.ar    1  UNL1        0.0034
     23 C          63.1154   81.0050   13.0317 C.ar    1  UNL1        0.0148
     24 C          61.9483   81.3311   13.9157 C.ar    1  UNL1        0.0600
     25 C          60.8190   80.3540   14.0578 C.3     1  UNL1        0.0521
     26 N          61.9103   82.6343   14.6575 N.ar    1  UNL1       -0.2414
@<TRIPOS>BOND
     1    16    17    1
     2    17    10    1
     3    10    11   ar
     4    11    12   ar
     5    12    13   ar
     6    13    14   ar
     7    14    15   ar
     8    15     1    1
     9     1     2    2
    10     1     3   am
    11     3     4    1
    12     4     5    1
    13     5     6    1
    14     6     7    2
    15     7    18    1
    16    18    19    3
    17    19    20    1
    18    20    21   ar
    19    21    22   ar
    20    22    23   ar
    21    23    24   ar
    22    24    25    1
    23    24    26   ar
    24     6     8    1
    25     8     9    1
    26    15    10   ar
    27     9     3    1
    28    26    20   ar
@<TRIPOS>MOLECULE
*****
 26 28 0 0 0
SMALL
GASTEIGER

@<TRIPOS>ATOM
      1 C          65.0505   91.6804   15.1608 C.2     1  UNL1        0.2520
      2 O          64.9841   92.8478   16.1004 O.2     1  UNL1       -0.2698
      3 N          64.4308   90.3703   15.5475 N.am    1  UNL1       -0.2753
      4 C          64.4972   89.2028   14.6079 C.3     1  UNL1        0.0981
      5 C          63.8775   87.8927   14.9946 C.3     1  UNL1        0.0442
      6 C          63.1915   87.7499   16.3210 C.2     1  UNL1       -0.0326
      7 C          62.5719   86.4398   16.7077 C.2     1  UNL1        0.0412
      8 C          63.1252   88.9173   17.2605 C.3     1  UNL1        0.0442
      9 C          63.7449   90.2275   16.8738 C.3     1  UNL1        0.0981
     10 C          64.9252   91.9036   12.5754 C.ar    1  UNL1        0.1430
     11 C          65.6112   92.0464   11.2491 C.ar    1  UNL1        0.0371
     12 C          67.1084   92.1086   11.1820 C.ar    1  UNL1        0.0031
     13 C          67.9196   92.0282   12.4411 C.ar    1  UNL1        0.0003
     14 C          67.2336   91.8854   13.7674 C.ar    1  UNL1        0.0076
     15 C          65.7364   91.8232   13.8345 C.ar    1  UNL1        0.0875
     16 C          62.6819   90.8308   11.8227 C.3     1  UNL1        0.2525
     17 O          63.4280   91.8414   12.6425 O.3     1  UNL1       -0.4713
     18 C          62.6383   85.2724   15.7680 C.1     1  UNL1       -0.0583
     19 C          62.7046   84.1050   14.8285 C.1     1  UNL1       -0.0405
     20 C          62.7709   82.9377   13.8889 C.ar    1  UNL1        0.1224
     21 C          62.2422   81.6003   14.3158 C.ar    1  UNL1        0.0276
     22 C          62.3085   80.4330   13.3762 C.ar    1  UNL1        0.0034
     23 C          62.9035   80.6029   12.0098 C.ar    1  UNL1        0.0148
     24 C          63.4321   81.9401   11.5829 C.ar    1  UNL1        0.0600
     25 C          64.0271   82.1100   10.2165 C.3     1  UNL1        0.0521
     26 N          63.3659   83.1075   12.5225 N.ar    1  UNL1       -0.2414
@<TRIPOS>BOND
     1    16    17    1
     2    17    10    1
     3    10    11   ar
     4    11    12   ar
     5    12    13   ar
     6    13    14   ar
     7    14    15   ar
     8    15     1    1
     9     1     2    2
    10     1     3   am
    11     3     4    1
    12     4     5    1
    13     5     6    1
    14     6     7    2
    15     7    18    1
    16    18    19    3
    17    19    20    1
    18    20    21   ar
    19    21    22   ar
    20    22    23   ar
    21    23    24   ar
    22    24    25    1
    23    24    26   ar
    24     6     8    1
    25     8     9    1
    26    15    10   ar
    27     9     3    1
    28    26    20   ar
@<TRIPOS>MOLECULE
*****
 26 28 0 0 0
SMALL
GASTEIGER

@<TRIPOS>ATOM
      1 C          63.0201   84.7521   14.3840 C.2     1  UNL1        0.2520
      2 O          62.4671   83.9110   15.4960 O.2     1  UNL1       -0.2698
      3 N          63.3694   86.1895   14.6331 N.am    1  UNL1       -0.2753
      4 C          63.9224   87.0306   13.5210 C.3     1  UNL1        0.0981
      5 C          64.2716   88.4679   13.7702 C.3     1  UNL1        0.0442
      6 C          64.0679   89.0641   15.1315 C.2     1  UNL1       -0.0326
      7 C          64.4171   90.5015   15.3807 C.2     1  UNL1        0.0412
      8 C          63.5149   88.2230   16.2435 C.3     1  UNL1        0.0442
      9 C          63.1656   86.7857   15.9944 C.3     1  UNL1        0.0981
     10 C          63.6971   82.7390   12.8876 C.ar    1  UNL1        0.1430
     11 C          63.9008   82.1429   11.5263 C.ar    1  UNL1        0.0371
     12 C          63.6313   82.9637   10.3001 C.ar    1  UNL1        0.0031
     13 C          63.1581   84.3806   10.4351 C.ar    1  UNL1        0.0003
     14 C          62.9543   84.9767   11.7964 C.ar    1  UNL1        0.0076
     15 C          63.2239   84.1559   13.0226 C.ar    1  UNL1        0.0875
     16 C          63.3045   80.5830   14.2830 C.3     1  UNL1        0.2525
     17 O          63.9666   81.9182   14.1138 O.3     1  UNL1       -0.4713
     18 C          64.9701   91.3426   14.2685 C.1     1  UNL1       -0.0583
     19 C          65.5231   92.1836   13.1564 C.1     1  UNL1       -0.0405
     20 C          66.0761   93.0247   12.0443 C.ar    1  UNL1        0.1224
     21 C          66.7523   92.3719   10.8753 C.ar    1  UNL1        0.0276
     22 C          67.3053   93.2129    9.7632 C.ar    1  UNL1        0.0034
     23 C          67.1821   94.7068    9.8201 C.ar    1  UNL1        0.0148
     24 C          66.5059   95.3596   10.9890 C.ar    1  UNL1        0.0600
     25 C          66.3827   96.8534   11.0459 C.3     1  UNL1        0.0521
     26 N          65.9529   94.5185   12.1012 N.ar    1  UNL1       -0.2414
@<TRIPOS>BOND
     1    16    17    1
     2    17    10    1
     3    10    11   ar
     4    11    12   ar
     5    12    13   ar
     6    13    14   ar
     7    14    15   ar
     8    15     1    1
     9     1     2    2
    10     1     3   am
    11     3     4    1
    12     4     5    1
    13     5     6    1
    14     6     7    2
    15     7    18    1
    16    18    19    3
    17    19    20    1
    18    20    21   ar
    19    21    22   ar
    20    22    23   ar
    21    23    24   ar
    22    24    25    1
    23    24    26   ar
    24     6     8    1
    25     8     9    1
    26    15    10   ar
    27     9     3    1
    28    26    20   ar
@<TRIPOS>MOLECULE
*****
 26 28 0 0 0
SMALL
GASTEIGER

@<TRIPOS>ATOM
      1 C          66.2085   93.2855   13.3891 C.2     1  UNL1        0.2520
      2 O          66.2741   94.6441   14.0215 O.2     1  UNL1       -0.2698
      3 N          65.5281   92.1569   14.1056 N.am    1  UNL1       -0.2753
      4 C          65.4625   90.7982   13.4732 C.3     1  UNL1        0.0981
      5 C          64.7822   89.6696   14.1897 C.3     1  UNL1        0.0442
      6 C          64.1675   89.8996   15.5385 C.2     1  UNL1       -0.0326
      7 C          63.4872   88.7709   16.2550 C.2     1  UNL1        0.0412
      8 C          64.2331   91.2582   16.1708 C.3     1  UNL1        0.0442
      9 C          64.9135   92.3868   15.4544 C.3     1  UNL1        0.0981
     10 C          66.4225   93.9139   10.8773 C.ar    1  UNL1        0.1430
     11 C          67.0372   93.6838    9.5285 C.ar    1  UNL1        0.0371
     12 C          68.0526   92.5955    9.3428 C.ar    1  UNL1        0.0031
     13 C          68.4533   91.7372   10.5058 C.ar    1  UNL1        0.0003
     14 C          67.8386   91.9672   11.8546 C.ar    1  UNL1        0.0076
     15 C          66.8232   93.0555   12.0403 C.ar    1  UNL1        0.0875
     16 C          65.6660   96.3719   10.5092 C.3     1  UNL1        0.2525
     17 O          65.4071   95.0022   11.0630 O.3     1  UNL1       -0.4713
     18 C          63.4216   87.4123   15.6226 C.1     1  UNL1       -0.0583
     19 C          63.3559   86.0537   14.9902 C.1     1  UNL1       -0.0405
     20 C          63.2903   84.6951   14.3579 C.ar    1  UNL1        0.1224
     21 C          62.5909   83.5719   15.0646 C.ar    1  UNL1        0.0276
     22 C          62.5252   82.2133   14.4323 C.ar    1  UNL1        0.0034
     23 C          63.1590   81.9779   13.0933 C.ar    1  UNL1        0.0148
     24 C          63.8583   83.1010   12.3866 C.ar    1  UNL1        0.0600
     25 C          64.4921   82.8655   11.0476 C.3     1  UNL1        0.0521
     26 N          63.9240   84.4596   13.0189 N.ar    1  UNL1       -0.2414
@<TRIPOS>BOND
     1    16    17    1
     2    17    10    1
     3    10    11   ar
     4    11    12   ar
     5    12    13   ar
     6    13    14   ar
     7    14    15   ar
     8    15     1    1
     9     1     2    2
    10     1     3   am
    11     3     4    1
    12     4     5    1
    13     5     6    1
    14     6     7    2
    15     7    18    1
    16    18    19    3
    17    19    20    1
    18    20    21   ar
    19    21    22   ar
    20    22    23   ar
    21    23    24   ar
    22    24    25    1
    23    24    26   ar
    24     6     8    1
    25     8     9    1
    26    15    10   ar
    27     9     3    1
    28    26    20   ar
@<TRIPOS>MOLECULE
*****
 26 28 0 0 0
SMALL
GASTEIGER

@<TRIPOS>ATOM
      1 C          62.0970   86.1669   12.1085 C.2     1  UNL1        0.2520
      2 O          61.8124   84.9536   12.9432 O.2     1  UNL1       -0.2698
      3 N          62.9278   87.2837   12.6674 N.am    1  UNL1       -0.2753
      4 C          63.2125   88.4971   11.8326 C.3     1  UNL1        0.0981
      5 C          64.0433   89.6139   12.3916 C.3     1  UNL1        0.0442
      6 C          64.5894   89.5174   13.7854 C.2     1  UNL1       -0.0326
      7 C          65.4202   90.6343   14.3443 C.2     1  UNL1        0.0412
      8 C          64.3047   88.3041   14.6201 C.3     1  UNL1        0.0442
      9 C          63.4739   87.1873   14.0611 C.3     1  UNL1        0.0981
     10 C          60.3699   87.1435   10.4312 C.ar    1  UNL1        0.1430
     11 C          59.8239   87.2399    9.0375 C.ar    1  UNL1        0.0371
     12 C          60.4589   86.4563    7.9272 C.ar    1  UNL1        0.0031
     13 C          61.6400   85.5761    8.2107 C.ar    1  UNL1        0.0003
     14 C          62.1860   85.4797    9.6045 C.ar    1  UNL1        0.0076
     15 C          61.5510   86.2634   10.7147 C.ar    1  UNL1        0.0875
     16 C          59.8993   89.4170   11.5972 C.3     1  UNL1        0.2525
     17 O          59.7348   87.9271   11.5414 O.3     1  UNL1       -0.4713
     18 C          65.7049   91.8476   13.5095 C.1     1  UNL1       -0.0583
     19 C          65.9895   93.0608   12.6747 C.1     1  UNL1       -0.0405
     20 C          66.2742   94.2741   11.8399 C.ar    1  UNL1        0.1224
     21 C          66.1663   95.6427   12.4444 C.ar    1  UNL1        0.0276
     22 C          66.4510   96.8559   11.6096 C.ar    1  UNL1        0.0034
     23 C          66.8435   96.7007   10.1703 C.ar    1  UNL1        0.0148
     24 C          66.9515   95.3322    9.5657 C.ar    1  UNL1        0.0600
     25 C          67.3440   95.1769    8.1263 C.3     1  UNL1        0.0521
     26 N          66.6668   94.1188   10.4005 N.ar    1  UNL1       -0.2414
@<TRIPOS>BOND
     1    16    17    1
     2    17    10    1
     3    10    11   ar
     4    11    12   ar
     5    12    13   ar
     6    13    14   ar
     7    14    15   ar
     8    15     1    1
     9     1     2    2
    10     1     3   am
    11     3     4    1
    12     4     5    1
    13     5     6    1
    14     6     7    2
    15     7    18    1
    16    18    19    3
    17    19    20    1
    18    20    21   ar
    19    21    22   ar
    20    22    23   ar
    21    23    24   ar
    22    24    25    1
    23    24    26   ar
    24     6     8    1
    25     8     9    1
    26    15    10   ar
    27     9     3    1
    28    26    20   ar
