@<TRIPOS>MOLECULE
*****
 38 40 0 0 0
SMALL
GASTEIGER

@<TRIPOS>ATOM
      1 C          63.9105   90.5513   14.2853 C.ar    1  UNL1        0.0734
      2 C          65.0385   91.5277   14.1288 C.ar    1  UNL1        0.0085
      3 C          64.9378   92.1370   12.7619 C.ar    1  UNL1        0.0080
      4 S          63.7475   91.5374   12.0736 S.2     1  UNL1       -0.0764
      5 C          63.1127   90.5574   13.0152 C.ar    1  UNL1        0.0860
      6 N          63.8313   84.9911   14.4475 N.am    1  UNL1       -0.2763
      7 C          64.0287   86.2242   13.6163 C.3     1  UNL1        0.1149
      8 C          63.9440   87.6606   14.0394 C.3     1  UNL1        0.1152
      9 N          63.6410   88.2192   15.3981 N.am    1  UNL1       -0.2738
     10 C          63.6297   89.7157   15.4990 C.2     1  UNL1        0.2508
     11 O          63.3375   90.3767   16.8134 O.2     1  UNL1       -0.2698
     12 C          63.3479   87.4790   16.6694 C.3     1  UNL1        0.1033
     13 C          63.2853   85.9975   16.8959 C.3     1  UNL1        0.1067
     14 C          63.5004   84.8904   15.9071 C.2     1  UNL1        0.2275
     15 O          63.3671   83.4982   16.4495 O.2     1  UNL1       -0.2748
     16 C          63.9850   83.6865   13.7233 C.3     1  UNL1        0.1107
     17 C          62.8542   83.1497   12.8968 C.3     1  UNL1        0.0939
     18 C          61.4794   81.3874   14.2214 C.3     1  UNL1        0.0897
     19 N          62.3942   81.7343   13.0844 N.3     1  UNL1       -0.2688
     20 C          62.8490   80.6659   12.1349 C.3     1  UNL1        0.0897
     21 N          61.8940   89.7288   12.7356 N.am    1  UNL1       -0.2629
     22 C          61.7404   89.0442   11.4098 C.2     1  UNL1        0.3085
     23 O          62.8056   89.1881   10.3636 O.2     1  UNL1       -0.2521
     24 N          60.5216   88.2156   11.1302 N.am    1  UNL1       -0.2673
     25 H          61.1948   89.6344   13.4222 H       1  UNL1        0.1569
     26 H          59.8225   88.1212   11.8168 H       1  UNL1        0.1564
     27 C          60.3681   87.5310    9.8044 C.ar    1  UNL1        0.0630
     28 C          59.2395   87.9087    8.8915 C.ar    1  UNL1        0.0156
     29 C          59.0859   87.2242    7.5657 C.ar    1  UNL1        0.0022
     30 C          60.0611   86.1617    7.1528 C.ar    1  UNL1        0.0123
     31 C          61.1898   85.7840    8.0658 C.ar    1  UNL1        0.0694
     32 CL         62.1649   84.7217    7.6529 Cl      1  UNL1       -0.0813
     33 C          61.3433   86.4686    9.3915 C.ar    1  UNL1        0.0816
     34 CL         62.4719   86.0909   10.3044 Cl      1  UNL1       -0.0801
     35 C          65.8645   93.1655   12.1846 C.3     1  UNL1        0.0246
     36 C          66.4061   93.4466   13.5549 C.3     1  UNL1        0.0049
     37 C          65.3230   92.8844   10.8143 C.3     1  UNL1        0.0049
     38 C          66.7914   94.1941   11.6074 C.3     1  UNL1        0.0049
@<TRIPOS>BOND
     1    18    19    1
     2    19    20    1
     3    19    17    1
     4    17    16    1
     5    16     6    1
     6     6     7    1
     7     7     8    1
     8     8     9    1
     9     9    10   am
    10    10    11    2
    11    10     1    1
    12     1     2   ar
    13     2     3   ar
    14     3    35    1
    15    35    36    1
    16    35    37    1
    17    35    38    1
    18     3     4   ar
    19     4     5   ar
    20     5    21    1
    21    21    22   am
    22    22    23    2
    23    22    24   am
    24    24    27    1
    25    27    28   ar
    26    28    29   ar
    27    29    30   ar
    28    30    31   ar
    29    31    32    1
    30    31    33   ar
    31    33    34    1
    32     9    12    1
    33    12    13    1
    34    13    14    1
    35    14    15    2
    36    14     6   am
    37     5     1   ar
    38    33    27   ar
    39    21    25    1
    40    24    26    1
@<TRIPOS>MOLECULE
*****
 38 40 0 0 0
SMALL
GASTEIGER

@<TRIPOS>ATOM
      1 C          62.9010   88.8266   12.4668 C.ar    1  UNL1        0.0734
      2 C          62.0568   89.6270   11.5196 C.ar    1  UNL1        0.0085
      3 C          61.4754   88.6848   10.5077 C.ar    1  UNL1        0.0080
      4 S          61.9600   87.3022   10.8293 S.2     1  UNL1       -0.0764
      5 C          62.8411   87.3899   12.0402 C.ar    1  UNL1        0.0860
      6 N          65.9518   93.4786   12.4674 N.am    1  UNL1       -0.2763
      7 C          65.0677   92.5524   11.6859 C.3     1  UNL1        0.1149
      8 C          64.4009   91.2889   12.1426 C.3     1  UNL1        0.1152
      9 N          64.4533   90.6393   13.4936 N.am    1  UNL1       -0.2738
     10 C          63.6699   89.3681   13.6354 C.2     1  UNL1        0.2508
     11 O          63.6554   88.6382   14.9458 O.2     1  UNL1       -0.2698
     12 C          65.1857   91.0928   14.7216 C.3     1  UNL1        0.1033
     13 C          66.0464   92.3080   14.9018 C.3     1  UNL1        0.1067
     14 C          66.3874   93.3697   13.8987 C.2     1  UNL1        0.2275
     15 O          67.2822   94.4679   14.3919 O.2     1  UNL1       -0.2748
     16 C          66.4687   94.6711   11.7187 C.3     1  UNL1        0.1107
     17 C          66.0762   94.8857   10.2870 C.3     1  UNL1        0.0939
     18 C          67.2732   96.0406    8.2910 C.3     1  UNL1        0.0897
     19 N          67.1217   94.8659    9.2116 N.3     1  UNL1       -0.2688
     20 C          68.0157   93.6714    9.0566 C.3     1  UNL1        0.0897
     21 N          63.5396   86.2423   12.7072 N.am    1  UNL1       -0.2629
     22 C          63.0702   84.8377   12.4688 C.2     1  UNL1        0.3085
     23 O          61.9022   84.5807   11.5634 O.2     1  UNL1       -0.2521
     24 N          63.7687   83.6900   13.1359 N.am    1  UNL1       -0.2673
     25 H          64.3062   86.4109   13.3014 H       1  UNL1        0.1569
     26 H          64.5353   83.8586   13.7301 H       1  UNL1        0.1564
     27 C          63.2993   82.2854   12.8975 C.ar    1  UNL1        0.0630
     28 C          62.6914   81.4972   14.0196 C.ar    1  UNL1        0.0156
     29 C          62.2219   80.0927   13.7813 C.ar    1  UNL1        0.0022
     30 C          62.3603   79.4763   12.4207 C.ar    1  UNL1        0.0123
     31 C          62.9683   80.2645   11.2986 C.ar    1  UNL1        0.0694
     32 CL         63.1067   79.6482    9.9381 Cl      1  UNL1       -0.0813
     33 C          63.4377   81.6691   11.5370 C.ar    1  UNL1        0.0816
     34 CL         64.0456   82.4573   10.4149 Cl      1  UNL1       -0.0801
     35 C          60.5684   89.0595    9.3732 C.3     1  UNL1        0.0246
     36 C          60.8361   87.7351    8.7218 C.3     1  UNL1        0.0049
     37 C          60.3007   90.3839   10.0246 C.3     1  UNL1        0.0049
     38 C          59.6615   89.4341    8.2387 C.3     1  UNL1        0.0049
@<TRIPOS>BOND
     1    18    19    1
     2    19    20    1
     3    19    17    1
     4    17    16    1
     5    16     6    1
     6     6     7    1
     7     7     8    1
     8     8     9    1
     9     9    10   am
    10    10    11    2
    11    10     1    1
    12     1     2   ar
    13     2     3   ar
    14     3    35    1
    15    35    36    1
    16    35    37    1
    17    35    38    1
    18     3     4   ar
    19     4     5   ar
    20     5    21    1
    21    21    22   am
    22    22    23    2
    23    22    24   am
    24    24    27    1
    25    27    28   ar
    26    28    29   ar
    27    29    30   ar
    28    30    31   ar
    29    31    32    1
    30    31    33   ar
    31    33    34    1
    32     9    12    1
    33    12    13    1
    34    13    14    1
    35    14    15    2
    36    14     6   am
    37     5     1   ar
    38    33    27   ar
    39    21    25    1
    40    24    26    1
@<TRIPOS>MOLECULE
*****
 38 40 0 0 0
SMALL
GASTEIGER

@<TRIPOS>ATOM
      1 C          63.9831   90.5072   14.4704 C.ar    1  UNL1        0.0734
      2 C          65.1505   91.4401   14.3389 C.ar    1  UNL1        0.0085
      3 C          65.0778   92.0858   12.9870 C.ar    1  UNL1        0.0080
      4 S          63.8656   91.5521   12.2829 S.2     1  UNL1       -0.0764
      5 C          63.1891   90.5765   13.1997 C.ar    1  UNL1        0.0860
      6 N          63.7847   84.9479   14.5237 N.am    1  UNL1       -0.2763
      7 C          64.0211   86.1920   13.7196 C.3     1  UNL1        0.1149
      8 C          63.9598   87.6217   14.1691 C.3     1  UNL1        0.1152
      9 N          63.6471   88.1606   15.5336 N.am    1  UNL1       -0.2738
     10 C          63.6655   89.6548   15.6631 C.2     1  UNL1        0.2508
     11 O          63.3664   90.2968   16.9855 O.2     1  UNL1       -0.2698
     12 C          63.3183   87.4028   16.7856 C.3     1  UNL1        0.1033
     13 C          63.2211   85.9189   16.9823 C.3     1  UNL1        0.1067
     14 C          63.4287   84.8264   15.9758 C.2     1  UNL1        0.2275
     15 O          63.2576   83.4274   16.4890 O.2     1  UNL1       -0.2748
     16 C          63.9225   83.6543   13.7769 C.3     1  UNL1        0.1107
     17 C          62.7757   83.1321   12.9633 C.3     1  UNL1        0.0939
     18 C          62.8751   80.6795   12.1118 C.3     1  UNL1        0.0897
     19 N          62.3605   81.6961   13.0875 N.3     1  UNL1       -0.2688
     20 C          61.4309   81.2765   14.1874 C.3     1  UNL1        0.0897
     21 N          61.9381   89.8055   12.8986 N.am    1  UNL1       -0.2629
     22 C          61.7046   89.2638   11.5195 C.2     1  UNL1        0.3085
     23 O          62.7221   89.4929   10.4414 O.2     1  UNL1       -0.2521
     24 N          60.4536   88.4928   11.2184 N.am    1  UNL1       -0.2673
     25 H          61.2703   89.6551   13.6062 H       1  UNL1        0.1569
     26 H          59.7858   88.3423   11.9259 H       1  UNL1        0.1564
     27 C          60.2201   87.9510    9.8393 C.ar    1  UNL1        0.0630
     28 C          60.4016   86.4870    9.5679 C.ar    1  UNL1        0.0156
     29 C          60.1681   85.9452    8.1889 C.ar    1  UNL1        0.0022
     30 C          59.7531   86.8674    7.0810 C.ar    1  UNL1        0.0123
     31 C          59.5715   88.3315    7.3524 C.ar    1  UNL1        0.0694
     32 CL         59.1565   89.2537    6.2446 Cl      1  UNL1       -0.0813
     33 C          59.8050   88.8733    8.7315 C.ar    1  UNL1        0.0816
     34 CL         59.6235   90.3373    9.0029 Cl      1  UNL1       -0.0801
     35 C          66.0472   93.0890   12.4359 C.3     1  UNL1        0.0246
     36 C          66.4541   93.4619   13.8306 C.3     1  UNL1        0.0049
     37 C          65.6403   92.7161   11.0411 C.3     1  UNL1        0.0049
     38 C          67.0167   94.0923   11.8849 C.3     1  UNL1        0.0049
@<TRIPOS>BOND
     1    18    19    1
     2    19    20    1
     3    19    17    1
     4    17    16    1
     5    16     6    1
     6     6     7    1
     7     7     8    1
     8     8     9    1
     9     9    10   am
    10    10    11    2
    11    10     1    1
    12     1     2   ar
    13     2     3   ar
    14     3    35    1
    15    35    36    1
    16    35    37    1
    17    35    38    1
    18     3     4   ar
    19     4     5   ar
    20     5    21    1
    21    21    22   am
    22    22    23    2
    23    22    24   am
    24    24    27    1
    25    27    28   ar
    26    28    29   ar
    27    29    30   ar
    28    30    31   ar
    29    31    32    1
    30    31    33   ar
    31    33    34    1
    32     9    12    1
    33    12    13    1
    34    13    14    1
    35    14    15    2
    36    14     6   am
    37     5     1   ar
    38    33    27   ar
    39    21    25    1
    40    24    26    1
@<TRIPOS>MOLECULE
*****
 38 40 0 0 0
SMALL
GASTEIGER

@<TRIPOS>ATOM
      1 C          63.1341   88.6430   12.3858 C.ar    1  UNL1        0.0734
      2 C          62.1305   87.9440   11.5172 C.ar    1  UNL1        0.0085
      3 C          61.6961   88.9019   10.4478 C.ar    1  UNL1        0.0080
      4 S          62.4310   90.1930   10.6554 S.2     1  UNL1       -0.0764
      5 C          63.3197   90.0329   11.8532 C.ar    1  UNL1        0.0860
      6 N          63.3979   83.2307   13.6450 N.am    1  UNL1       -0.2763
      7 C          62.9007   84.2801   12.6952 C.3     1  UNL1        0.1149
      8 C          63.0891   85.7666   12.7620 C.3     1  UNL1        0.1152
      9 N          63.8211   86.5712   13.7948 N.am    1  UNL1       -0.2738
     10 C          63.8298   88.0553   13.5777 C.2     1  UNL1        0.2508
     11 O          64.5341   88.9519   14.5525 O.2     1  UNL1       -0.2698
     12 C          64.5456   86.0879   15.0161 C.3     1  UNL1        0.1033
     13 C          64.7170   84.6805   15.5061 C.3     1  UNL1        0.1067
     14 C          64.2063   83.4091   14.8960 C.2     1  UNL1        0.2275
     15 O          64.5491   82.1492   15.6343 O.2     1  UNL1       -0.2748
     16 C          63.0394   81.8162   13.2978 C.3     1  UNL1        0.1107
     17 C          62.3379   81.5156   12.0065 C.3     1  UNL1        0.0939
     18 C          64.1028   82.2565   10.2498 C.3     1  UNL1        0.0897
     19 N          63.1353   81.2338   10.7677 N.3     1  UNL1       -0.2688
     20 C          62.9653   79.9295   10.0468 C.3     1  UNL1        0.0897
     21 N          64.2336   91.0791   12.4190 N.am    1  UNL1       -0.2629
     22 C          64.7523   92.1774   11.5387 C.2     1  UNL1        0.3085
     23 O          64.3571   92.2294   10.0927 O.2     1  UNL1       -0.2521
     24 N          65.6663   93.2236   12.1045 N.am    1  UNL1       -0.2673
     25 H          64.4931   91.0450   13.3681 H       1  UNL1        0.1569
     26 H          65.9257   93.1895   13.0536 H       1  UNL1        0.1564
     27 C          66.1850   94.3219   11.2242 C.ar    1  UNL1        0.0630
     28 C          65.8420   95.7505   11.5264 C.ar    1  UNL1        0.0156
     29 C          66.3607   96.8487   10.6462 C.ar    1  UNL1        0.0022
     30 C          67.2224   96.5183    9.4636 C.ar    1  UNL1        0.0123
     31 C          67.5654   95.0896    9.1614 C.ar    1  UNL1        0.0694
     32 CL         68.4271   94.7592    7.9789 Cl      1  UNL1       -0.0813
     33 C          67.0467   93.9914   10.0417 C.ar    1  UNL1        0.0816
     34 CL         67.3897   92.5628    9.7395 Cl      1  UNL1       -0.0801
     35 C          60.7013   88.6185    9.3615 C.3     1  UNL1        0.0246
     36 C          61.2683   87.2390    9.2022 C.3     1  UNL1        0.0049
     37 C          60.1342   89.9981    9.5208 C.3     1  UNL1        0.0049
     38 C          59.7065   88.3351    8.2752 C.3     1  UNL1        0.0049
@<TRIPOS>BOND
     1    18    19    1
     2    19    20    1
     3    19    17    1
     4    17    16    1
     5    16     6    1
     6     6     7    1
     7     7     8    1
     8     8     9    1
     9     9    10   am
    10    10    11    2
    11    10     1    1
    12     1     2   ar
    13     2     3   ar
    14     3    35    1
    15    35    36    1
    16    35    37    1
    17    35    38    1
    18     3     4   ar
    19     4     5   ar
    20     5    21    1
    21    21    22   am
    22    22    23    2
    23    22    24   am
    24    24    27    1
    25    27    28   ar
    26    28    29   ar
    27    29    30   ar
    28    30    31   ar
    29    31    32    1
    30    31    33   ar
    31    33    34    1
    32     9    12    1
    33    12    13    1
    34    13    14    1
    35    14    15    2
    36    14     6   am
    37     5     1   ar
    38    33    27   ar
    39    21    25    1
    40    24    26    1
@<TRIPOS>MOLECULE
*****
 38 40 0 0 0
SMALL
GASTEIGER

@<TRIPOS>ATOM
      1 C          61.8459   89.2337   11.2714 C.ar    1  UNL1        0.0734
      2 C          60.9904   89.8446   10.2012 C.ar    1  UNL1        0.0085
      3 C          60.6041   88.7591    9.2408 C.ar    1  UNL1        0.0080
      4 S          61.2209   87.4774    9.7172 S.2     1  UNL1       -0.0764
      5 C          61.9884   87.7708   10.9722 C.ar    1  UNL1        0.0860
      6 N          65.9601   92.9671   10.9824 N.am    1  UNL1       -0.2763
      7 C          65.0556   92.0297   10.2386 C.3     1  UNL1        0.1149
      8 C          63.9881   91.1292   10.7856 C.3     1  UNL1        0.1152
      9 N          63.5613   90.9435   12.2116 N.am    1  UNL1       -0.2738
     10 C          62.4525   89.9586   12.4361 C.2     1  UNL1        0.2508
     11 O          61.9502   89.6985   13.8254 O.2     1  UNL1       -0.2698
     12 C          64.0966   91.6126   13.4427 C.3     1  UNL1        0.1033
     13 C          65.1910   92.6326   13.5519 C.3     1  UNL1        0.1067
     14 C          66.0203   93.2354   12.4571 C.2     1  UNL1        0.2275
     15 O          67.0455   94.2393   12.8945 O.2     1  UNL1       -0.2748
     16 C          66.9330   93.7381   10.1404 C.3     1  UNL1        0.1107
     17 C          66.9823   95.2345   10.2314 C.3     1  UNL1        0.0939
     18 C          64.7775   96.5894   10.0002 C.3     1  UNL1        0.0897
     19 N          66.0504   96.0675    9.4022 N.3     1  UNL1       -0.2688
     20 C          66.3912   96.3786    7.9750 C.3     1  UNL1        0.0897
     21 N          62.7624   86.7759   11.7852 N.am    1  UNL1       -0.2629
     22 C          62.5782   85.3066   11.5462 C.2     1  UNL1        0.3085
     23 O          61.6200   84.8321   10.4942 O.2     1  UNL1       -0.2521
     24 N          63.3523   84.3116   12.3592 N.am    1  UNL1       -0.2673
     25 H          63.3913   87.0873   12.4756 H       1  UNL1        0.1569
     26 H          63.9812   84.6230   13.0497 H       1  UNL1        0.1564
     27 C          63.1681   82.8423   12.1202 C.ar    1  UNL1        0.0630
     28 C          63.5560   82.2425   10.8013 C.ar    1  UNL1        0.0156
     29 C          63.3718   80.7732   10.5622 C.ar    1  UNL1        0.0022
     30 C          62.7997   79.9036   11.6423 C.ar    1  UNL1        0.0123
     31 C          62.4117   80.5034   12.9614 C.ar    1  UNL1        0.0694
     32 CL         61.8396   79.6338   14.0414 Cl      1  UNL1       -0.0813
     33 C          62.5959   81.9727   13.2003 C.ar    1  UNL1        0.0816
     34 CL         62.2080   82.5725   14.5193 Cl      1  UNL1       -0.0801
     35 C          59.7509   88.9260    8.0185 C.3     1  UNL1        0.0246
     36 C          60.1402   90.3727    7.9443 C.3     1  UNL1        0.0049
     37 C          59.3615   87.4793    8.0926 C.3     1  UNL1        0.0049
     38 C          58.8976   89.0930    6.7961 C.3     1  UNL1        0.0049
@<TRIPOS>BOND
     1    18    19    1
     2    19    20    1
     3    19    17    1
     4    17    16    1
     5    16     6    1
     6     6     7    1
     7     7     8    1
     8     8     9    1
     9     9    10   am
    10    10    11    2
    11    10     1    1
    12     1     2   ar
    13     2     3   ar
    14     3    35    1
    15    35    36    1
    16    35    37    1
    17    35    38    1
    18     3     4   ar
    19     4     5   ar
    20     5    21    1
    21    21    22   am
    22    22    23    2
    23    22    24   am
    24    24    27    1
    25    27    28   ar
    26    28    29   ar
    27    29    30   ar
    28    30    31   ar
    29    31    32    1
    30    31    33   ar
    31    33    34    1
    32     9    12    1
    33    12    13    1
    34    13    14    1
    35    14    15    2
    36    14     6   am
    37     5     1   ar
    38    33    27   ar
    39    21    25    1
    40    24    26    1
@<TRIPOS>MOLECULE
*****
 38 40 0 0 0
SMALL
GASTEIGER

@<TRIPOS>ATOM
      1 C          61.9436   86.3335    9.2751 C.ar    1  UNL1        0.0734
      2 C          61.0630   86.6704    8.1084 C.ar    1  UNL1        0.0085
      3 C          60.3705   87.9664    8.4095 C.ar    1  UNL1        0.0080
      4 S          60.8230   88.4305    9.7622 S.2     1  UNL1       -0.0764
      5 C          61.7953   87.4212   10.2972 C.ar    1  UNL1        0.0860
      6 N          62.9539   83.5251   13.9699 N.am    1  UNL1       -0.2763
      7 C          62.2461   84.6761   13.3183 C.3     1  UNL1        0.1149
      8 C          62.2680   85.0928   11.8776 C.3     1  UNL1        0.1152
      9 N          63.0029   84.4616   10.7324 N.am    1  UNL1       -0.2738
     10 C          62.8189   85.1215    9.3981 C.2     1  UNL1        0.2508
     11 O          63.5101   84.5695    8.1866 O.2     1  UNL1       -0.2698
     12 C          63.8976   83.2577   10.7452 C.3     1  UNL1        0.1033
     13 C          64.2783   82.3877   11.9064 C.3     1  UNL1        0.1067
     14 C          63.8583   82.5066   13.3414 C.2     1  UNL1        0.2275
     15 O          64.4165   81.4702   14.2710 O.2     1  UNL1       -0.2748
     16 C          62.7273   83.3724   15.4448 C.3     1  UNL1        0.1107
     17 C          62.1324   84.5014   16.2330 C.3     1  UNL1        0.0939
     18 C          62.6341   86.4922   17.8251 C.3     1  UNL1        0.0897
     19 N          62.9799   85.6793   16.6128 N.3     1  UNL1       -0.2688
     20 C          64.1731   86.0443   15.7804 C.3     1  UNL1        0.0897
     21 N          62.4961   87.4881   11.6217 N.am    1  UNL1       -0.2629
     22 C          63.1152   88.7757   12.0784 C.2     1  UNL1        0.3085
     23 O          63.0336   89.9965   11.2107 O.2     1  UNL1       -0.2521
     24 N          63.8161   88.8426   13.4030 N.am    1  UNL1       -0.2673
     25 H          62.5497   86.6869   12.1912 H       1  UNL1        0.1569
     26 H          63.8697   88.0414   13.9725 H       1  UNL1        0.1564
     27 C          64.4353   90.1303   13.8598 C.ar    1  UNL1        0.0630
     28 C          65.2529   90.9493   12.9055 C.ar    1  UNL1        0.0156
     29 C          65.8720   92.2369   13.3622 C.ar    1  UNL1        0.0022
     30 C          65.6736   92.7056   14.7733 C.ar    1  UNL1        0.0123
     31 C          64.8559   91.8865   15.7276 C.ar    1  UNL1        0.0694
     32 CL         64.6575   92.3551   17.1386 Cl      1  UNL1       -0.0813
     33 C          64.2368   90.5988   15.2708 C.ar    1  UNL1        0.0816
     34 CL         63.4192   89.7798   16.2251 Cl      1  UNL1       -0.0801
     35 C          59.3964   88.6741    7.5149 C.3     1  UNL1        0.0246
     36 C          58.6833   87.3782    7.2662 C.3     1  UNL1        0.0049
     37 C          60.1095   89.9702    7.7636 C.3     1  UNL1        0.0049
     38 C          58.4223   89.3818    6.6203 C.3     1  UNL1        0.0049
@<TRIPOS>BOND
     1    18    19    1
     2    19    20    1
     3    19    17    1
     4    17    16    1
     5    16     6    1
     6     6     7    1
     7     7     8    1
     8     8     9    1
     9     9    10   am
    10    10    11    2
    11    10     1    1
    12     1     2   ar
    13     2     3   ar
    14     3    35    1
    15    35    36    1
    16    35    37    1
    17    35    38    1
    18     3     4   ar
    19     4     5   ar
    20     5    21    1
    21    21    22   am
    22    22    23    2
    23    22    24   am
    24    24    27    1
    25    27    28   ar
    26    28    29   ar
    27    29    30   ar
    28    30    31   ar
    29    31    32    1
    30    31    33   ar
    31    33    34    1
    32     9    12    1
    33    12    13    1
    34    13    14    1
    35    14    15    2
    36    14     6   am
    37     5     1   ar
    38    33    27   ar
    39    21    25    1
    40    24    26    1
