@<TRIPOS>MOLECULE
*****
 59 64 0 0 0
SMALL
GASTEIGER

@<TRIPOS>ATOM
      1 N          61.4307   87.4407    9.0577 N.3     1  UNL1       -0.2621
      2 C          60.6809   86.7792    7.9395 C.3     1  UNL1        0.0901
      3 C          59.6617   87.5544    7.1582 C.3     1  UNL1        0.0899
      4 N          59.3924   88.9912    7.4951 N.3     1  UNL1       -0.2661
      5 C          60.1423   89.6526    8.6132 C.3     1  UNL1        0.0980
      6 C          61.1614   88.8774    9.3945 C.3     1  UNL1        0.1510
      7 C          61.9112   89.5388   10.5126 C.2     1  UNL1        0.2386
      8 O          61.5614   89.2273   11.9376 O.2     1  UNL1       -0.2736
      9 N          63.0109   90.5118   10.2058 N.am    1  UNL1       -0.2961
     10 H          63.2405   90.7162    9.2705 H       1  UNL1        0.1497
     11 C          63.7607   91.1732   11.3239 C.3     1  UNL1        0.1939
     12 C          64.7569   92.2536   11.0229 C.3     1  UNL1        0.4154
     13 F          65.7531   93.3339   10.7219 F       1  UNL1       -0.1682
     14 F          65.5550   91.8535   12.2283 F       1  UNL1       -0.1682
     15 F          63.9589   92.6536    9.8175 F       1  UNL1       -0.1682
     16 C          62.4498   86.6655    9.8390 C.3     1  UNL1        0.1021
     17 C          62.0142   85.7810   10.9695 C.3     1  UNL1        0.1269
     18 O          61.0037   86.2750   11.9618 O.3     1  UNL1       -0.3830
     19 H          60.7368   87.1781   11.7292 H       1  UNL1        0.2104
     20 C          62.5892   84.4024   11.1075 C.3     1  UNL1        0.0401
     21 C          63.1372   83.9471   12.4274 C.3     1  UNL1        0.0833
     22 O          61.4855   84.5264   14.3474 O.2     1  UNL1       -0.2751
     23 C          62.8147   84.7113   13.6773 C.2     1  UNL1        0.2226
     24 N          63.8214   85.6603   14.2570 N.am    1  UNL1       -0.2999
     25 H          64.6938   85.7816   13.8171 H       1  UNL1        0.1498
     26 C          63.4989   86.4244   15.5068 C.3     1  UNL1        0.1278
     27 C          63.6718   87.9140   15.5408 C.ar    1  UNL1        0.0320
     28 C          64.1672   88.6395   14.3250 C.ar    1  UNL1        0.0004
     29 C          64.3402   90.1291   14.3590 C.ar    1  UNL1       -0.0001
     30 C          64.0177   90.8932   15.6088 C.ar    1  UNL1        0.0031
     31 C          63.5223   90.1678   16.8246 C.ar    1  UNL1        0.0366
     32 C          63.3493   88.6782   16.7906 C.ar    1  UNL1        0.1362
     33 O          62.8539   87.9527   18.0065 O.3     1  UNL1       -0.4730
     34 C          62.6810   86.4631   17.9725 C.3     1  UNL1        0.2364
     35 C          63.0035   85.6989   16.7226 C.3     1  UNL1        0.1762
     36 O          62.8305   84.2093   16.6886 O.3     1  UNL1       -0.3788
     37 H          62.5054   83.9018   17.5492 H       1  UNL1        0.2106
     38 C          64.0078   82.7276   12.4976 C.3     1  UNL1        0.0371
     39 C          63.5092   81.4183   11.9619 C.ar    1  UNL1       -0.0025
     40 C          63.5690   81.1387   10.4894 C.ar    1  UNL1       -0.0011
     41 C          63.0703   79.8293    9.9538 C.ar    1  UNL1        0.0204
     42 C          62.5119   78.7996   10.8907 C.ar    1  UNL1        0.0989
     43 N          62.4521   79.0791   12.3632 N.ar    1  UNL1       -0.2426
     44 C          62.9507   80.3885   12.8988 C.ar    1  UNL1        0.0946
     45 C          58.3733   89.7664    6.7138 C.3     1  UNL1        0.1008
     46 C          58.8124   90.6825    5.6102 C.ar    1  UNL1        0.0129
     47 C          57.9446   91.6673    4.8841 C.ar    1  UNL1        0.0176
     48 C          58.7922   92.3682    3.8641 C.ar    1  UNL1        0.0799
     49 N          60.1838   91.8166    3.9598 N.ar    1  UNL1       -0.3018
     50 C          60.1963   90.7748    5.0390 C.ar    1  UNL1        0.0772
     51 C          61.3570   92.2335    3.1233 C.ar    1  UNL1        0.0940
     52 C          62.6567   91.4928    3.2320 C.ar    1  UNL1        0.0223
     53 C          63.8299   91.9097    2.3954 C.ar    1  UNL1        0.0336
     54 C          63.7033   93.0675    1.4502 C.ar    1  UNL1        0.1697
     55 F          64.8764   93.4844    0.6136 F       1  UNL1       -0.2017
     56 C          62.4034   93.8083    1.3414 C.ar    1  UNL1        0.1960
     57 F          62.2768   94.9660    0.3961 F       1  UNL1       -0.1994
     58 C          61.2304   93.3913    2.1780 C.ar    1  UNL1        0.1856
     59 F          59.9305   94.1321    2.0693 F       1  UNL1       -0.2002
@<TRIPOS>BOND
     1    22    23    2
     2    23    24   am
     3    26    24    1
     4    26    27    1
     5    27    28   ar
     6    28    29   ar
     7    29    30   ar
     8    30    31   ar
     9    31    32   ar
    10    32    33    1
    11    33    34    1
    12    34    35    1
    13    35    36    1
    14    23    21    1
    15    21    38    1
    16    38    39    1
    17    39    40   ar
    18    40    41   ar
    19    41    42   ar
    20    42    43   ar
    21    43    44   ar
    22    21    20    1
    23    20    17    1
    24    17    18    1
    25    17    16    1
    26    16     1    1
    27     1     2    1
    28     2     3    1
    29     3     4    1
    30     4    45    1
    31    45    46    1
    32    46    47   ar
    33    47    48   ar
    34    48    49   ar
    35    49    51    1
    36    51    52   ar
    37    52    53   ar
    38    53    54   ar
    39    54    55    1
    40    54    56   ar
    41    56    57    1
    42    56    58   ar
    43    58    59    1
    44    49    50   ar
    45     4     5    1
    46     5     6    1
    47     6     7    1
    48     7     8    2
    49     7     9   am
    50     9    11    1
    51    11    12    1
    52    12    13    1
    53    12    14    1
    54    12    15    1
    55    35    26    1
    56    44    39   ar
    57     6     1    1
    58    32    27   ar
    59    50    46   ar
    60    58    51   ar
    61    24    25    1
    62    36    37    1
    63    18    19    1
    64     9    10    1
@<TRIPOS>MOLECULE
*****
 59 64 0 0 0
SMALL
GASTEIGER

@<TRIPOS>ATOM
      1 N          61.8379   88.9568   10.6933 N.3     1  UNL1       -0.2621
      2 C          61.2146   90.2084   10.1499 C.3     1  UNL1        0.0901
      3 C          60.3320   90.1419    8.9389 C.3     1  UNL1        0.0899
      4 N          60.0727   88.8239    8.2712 N.3     1  UNL1       -0.2661
      5 C          60.6961   87.5724    8.8146 C.3     1  UNL1        0.0980
      6 C          61.5787   87.6389   10.0256 C.3     1  UNL1        0.1510
      7 C          62.2020   86.3875   10.5690 C.2     1  UNL1        0.2386
      8 O          62.8666   85.4158    9.6393 O.2     1  UNL1       -0.2736
      9 N          62.1609   86.1076   12.0421 N.am    1  UNL1       -0.2961
     10 H          61.7247   86.7453   12.6523 H       1  UNL1        0.1497
     11 C          62.7842   84.8561   12.5855 C.3     1  UNL1        0.1939
     12 C          63.8549   84.9450   13.6323 C.3     1  UNL1        0.4154
     13 F          64.9256   85.0339   14.6791 F       1  UNL1       -0.1682
     14 F          63.8633   83.4497   13.7507 F       1  UNL1       -0.1682
     15 F          63.8466   86.4403   13.5139 F       1  UNL1       -0.1682
     16 C          62.7205   89.0233   11.9043 C.3     1  UNL1        0.1021
     17 C          62.3637   89.9316   13.0435 C.3     1  UNL1        0.1269
     18 O          61.4452   89.4502   14.1273 O.3     1  UNL1       -0.3830
     19 H          61.1752   88.5375   13.9404 H       1  UNL1        0.2104
     20 C          62.9253   91.3214   13.0988 C.3     1  UNL1        0.0401
     21 C          64.4081   91.5347   13.0230 C.3     1  UNL1        0.0833
     22 O          64.6415   92.0619   10.4897 O.2     1  UNL1       -0.2751
     23 C          64.9911   92.3634   11.9168 C.2     1  UNL1        0.2226
     24 N          65.9236   93.4936   12.2380 N.am    1  UNL1       -0.2999
     25 H          66.1530   93.6915   13.1747 H       1  UNL1        0.1498
     26 C          66.5065   94.3223   11.1319 C.3     1  UNL1        0.1278
     27 C          67.3393   93.6725   10.0669 C.ar    1  UNL1        0.0320
     28 C          67.5891   92.1941   10.1079 C.ar    1  UNL1        0.0004
     29 C          68.4219   91.5443    9.0428 C.ar    1  UNL1       -0.0001
     30 C          69.0048   92.3730    7.9368 C.ar    1  UNL1        0.0031
     31 C          68.7550   93.8515    7.8958 C.ar    1  UNL1        0.0366
     32 C          67.9222   94.5012    8.9608 C.ar    1  UNL1        0.1362
     33 O          67.6724   95.9798    8.9198 O.3     1  UNL1       -0.4730
     34 C          66.8397   96.6295    9.9848 C.3     1  UNL1        0.2364
     35 C          66.2567   95.8007   11.0909 C.3     1  UNL1        0.1762
     36 O          65.4239   96.4505   12.1560 O.3     1  UNL1       -0.3788
     37 H          65.3617   97.4027   11.9818 H       1  UNL1        0.2106
     38 C          65.3080   90.9193   14.0533 C.3     1  UNL1        0.0371
     39 C          66.4283   91.7216   14.6459 C.ar    1  UNL1       -0.0025
     40 C          67.8118   91.6125   14.0766 C.ar    1  UNL1       -0.0011
     41 C          68.9321   92.4149   14.6693 C.ar    1  UNL1        0.0204
     42 C          68.6689   93.3262   15.8312 C.ar    1  UNL1        0.0989
     43 N          67.2855   93.4352   16.4006 N.ar    1  UNL1       -0.2426
     44 C          66.1652   92.6329   15.8079 C.ar    1  UNL1        0.0946
     45 C          59.1901   88.7574    7.0602 C.3     1  UNL1        0.1008
     46 C          59.1535   89.9050    6.0949 C.ar    1  UNL1        0.0129
     47 C          57.9598   90.7590    5.7854 C.ar    1  UNL1        0.0176
     48 C          58.3727   91.7819    4.7690 C.ar    1  UNL1        0.0799
     49 N          59.8216   91.5601    4.4502 N.ar    1  UNL1       -0.3018
     50 C          60.3041   90.4001    5.2697 C.ar    1  UNL1        0.0772
     51 C          60.6436   92.3581    3.4820 C.ar    1  UNL1        0.0940
     52 C          60.0448   93.5482    2.7926 C.ar    1  UNL1        0.0223
     53 C          60.8668   94.3462    1.8244 C.ar    1  UNL1        0.0336
     54 C          62.2875   93.9542    1.5455 C.ar    1  UNL1        0.1697
     55 F          63.1095   94.7522    0.5773 F       1  UNL1       -0.2017
     56 C          62.8863   92.7640    2.2349 C.ar    1  UNL1        0.1960
     57 F          64.3070   92.3720    1.9560 F       1  UNL1       -0.1994
     58 C          62.0643   91.9661    3.2031 C.ar    1  UNL1        0.1856
     59 F          62.6631   90.7759    3.8925 F       1  UNL1       -0.2002
@<TRIPOS>BOND
     1    22    23    2
     2    23    24   am
     3    26    24    1
     4    26    27    1
     5    27    28   ar
     6    28    29   ar
     7    29    30   ar
     8    30    31   ar
     9    31    32   ar
    10    32    33    1
    11    33    34    1
    12    34    35    1
    13    35    36    1
    14    23    21    1
    15    21    38    1
    16    38    39    1
    17    39    40   ar
    18    40    41   ar
    19    41    42   ar
    20    42    43   ar
    21    43    44   ar
    22    21    20    1
    23    20    17    1
    24    17    18    1
    25    17    16    1
    26    16     1    1
    27     1     2    1
    28     2     3    1
    29     3     4    1
    30     4    45    1
    31    45    46    1
    32    46    47   ar
    33    47    48   ar
    34    48    49   ar
    35    49    51    1
    36    51    52   ar
    37    52    53   ar
    38    53    54   ar
    39    54    55    1
    40    54    56   ar
    41    56    57    1
    42    56    58   ar
    43    58    59    1
    44    49    50   ar
    45     4     5    1
    46     5     6    1
    47     6     7    1
    48     7     8    2
    49     7     9   am
    50     9    11    1
    51    11    12    1
    52    12    13    1
    53    12    14    1
    54    12    15    1
    55    35    26    1
    56    44    39   ar
    57     6     1    1
    58    32    27   ar
    59    50    46   ar
    60    58    51   ar
    61    24    25    1
    62    36    37    1
    63    18    19    1
    64     9    10    1
@<TRIPOS>MOLECULE
*****
 59 64 0 0 0
SMALL
GASTEIGER

@<TRIPOS>ATOM
      1 N          61.4614   88.8789   10.4478 N.3     1  UNL1       -0.2621
      2 C          60.6914   90.1086   10.0670 C.3     1  UNL1        0.0901
      3 C          59.8537   90.1137    8.8228 C.3     1  UNL1        0.0899
      4 N          59.7860   88.8889    7.9593 N.3     1  UNL1       -0.2661
      5 C          60.5560   87.6593    8.3400 C.3     1  UNL1        0.0980
      6 C          61.3937   87.6543    9.5843 C.3     1  UNL1        0.1510
      7 C          62.1637   86.4247    9.9651 C.2     1  UNL1        0.2386
      8 O          63.0208   85.7314    8.9478 O.2     1  UNL1       -0.2736
      9 N          62.0767   85.8882   11.3632 N.am    1  UNL1       -0.2961
     10 H          61.5142   86.3432   12.0309 H       1  UNL1        0.1497
     11 C          62.8468   84.6586   11.7440 C.3     1  UNL1        0.1939
     12 C          63.2585   84.4431   13.1703 C.3     1  UNL1        0.4154
     13 F          63.6701   84.2277   14.5965 F       1  UNL1       -0.1682
     14 F          64.6352   84.0594   12.7149 F       1  UNL1       -0.1682
     15 F          61.8818   84.8269   13.6256 F       1  UNL1       -0.1682
     16 C          62.2991   88.8739   11.6921 C.3     1  UNL1        0.1021
     17 C          61.9959   89.8337   12.8043 C.3     1  UNL1        0.1269
     18 O          61.0162   89.4553   13.8752 O.3     1  UNL1       -0.3830
     19 H          60.6737   88.5649   13.7001 H       1  UNL1        0.2104
     20 C          62.6723   91.1719   12.8454 C.3     1  UNL1        0.0401
     21 C          64.1682   91.2541   12.9205 C.3     1  UNL1        0.0833
     22 O          64.4457   91.5595   10.3554 O.2     1  UNL1       -0.2751
     23 C          64.9503   91.7752   11.7513 C.2     1  UNL1        0.2226
     24 N          66.2371   92.5119   11.9783 N.am    1  UNL1       -0.2999
     25 H          66.5683   92.6535   12.8945 H       1  UNL1        0.1498
     26 C          67.0192   93.0329   10.8092 C.3     1  UNL1        0.1278
     27 C          66.6029   94.3073   10.1364 C.ar    1  UNL1        0.0320
     28 C          65.4045   95.0606   10.6325 C.ar    1  UNL1        0.0004
     29 C          64.9882   96.3349    9.9597 C.ar    1  UNL1       -0.0001
     30 C          65.7704   96.8560    8.7906 C.ar    1  UNL1        0.0031
     31 C          66.9688   96.1027    8.2944 C.ar    1  UNL1        0.0366
     32 C          67.3851   94.8283    8.9673 C.ar    1  UNL1        0.1362
     33 O          68.5836   94.0750    8.4711 O.3     1  UNL1       -0.4730
     34 C          68.9999   92.8007    9.1439 C.3     1  UNL1        0.2364
     35 C          68.2176   92.2796   10.3130 C.3     1  UNL1        0.1762
     36 O          68.6339   91.0053   10.9859 O.3     1  UNL1       -0.3788
     37 H          69.4208   90.6488   10.5448 H       1  UNL1        0.2106
     38 C          64.8819   90.8153   14.1647 C.3     1  UNL1        0.0371
     39 C          64.3151   89.7088   15.0038 C.ar    1  UNL1       -0.0025
     40 C          63.5576   90.0311   16.2578 C.ar    1  UNL1       -0.0011
     41 C          62.9908   88.9244   17.0970 C.ar    1  UNL1        0.0204
     42 C          63.1814   87.4956   16.6821 C.ar    1  UNL1        0.0989
     43 N          63.9388   87.1734   15.4282 N.ar    1  UNL1       -0.2426
     44 C          64.5057   88.2799   14.5890 C.ar    1  UNL1        0.0946
     45 C          58.9483   88.8940    6.7150 C.3     1  UNL1        0.1008
     46 C          58.9898   90.0723    5.7876 C.ar    1  UNL1        0.0129
     47 C          57.8385   90.9752    5.4572 C.ar    1  UNL1        0.0176
     48 C          58.3271   92.0154    4.4932 C.ar    1  UNL1        0.0799
     49 N          59.7804   91.7554    4.2279 N.ar    1  UNL1       -0.3018
     50 C          60.1900   90.5544    5.0279 C.ar    1  UNL1        0.0772
     51 C          60.6682   92.5558    3.3218 C.ar    1  UNL1        0.0940
     52 C          60.1430   93.7957    2.6609 C.ar    1  UNL1        0.0223
     53 C          61.0309   94.5961    1.7547 C.ar    1  UNL1        0.0336
     54 C          62.4438   94.1565    1.5094 C.ar    1  UNL1        0.1697
     55 F          63.3316   94.9569    0.6033 F       1  UNL1       -0.2017
     56 C          62.9691   92.9166    2.1703 C.ar    1  UNL1        0.1960
     57 F          64.3821   92.4770    1.9250 F       1  UNL1       -0.1994
     58 C          62.0812   92.1163    3.0764 C.ar    1  UNL1        0.1856
     59 F          62.6064   90.8762    3.7374 F       1  UNL1       -0.2002
@<TRIPOS>BOND
     1    22    23    2
     2    23    24   am
     3    26    24    1
     4    26    27    1
     5    27    28   ar
     6    28    29   ar
     7    29    30   ar
     8    30    31   ar
     9    31    32   ar
    10    32    33    1
    11    33    34    1
    12    34    35    1
    13    35    36    1
    14    23    21    1
    15    21    38    1
    16    38    39    1
    17    39    40   ar
    18    40    41   ar
    19    41    42   ar
    20    42    43   ar
    21    43    44   ar
    22    21    20    1
    23    20    17    1
    24    17    18    1
    25    17    16    1
    26    16     1    1
    27     1     2    1
    28     2     3    1
    29     3     4    1
    30     4    45    1
    31    45    46    1
    32    46    47   ar
    33    47    48   ar
    34    48    49   ar
    35    49    51    1
    36    51    52   ar
    37    52    53   ar
    38    53    54   ar
    39    54    55    1
    40    54    56   ar
    41    56    57    1
    42    56    58   ar
    43    58    59    1
    44    49    50   ar
    45     4     5    1
    46     5     6    1
    47     6     7    1
    48     7     8    2
    49     7     9   am
    50     9    11    1
    51    11    12    1
    52    12    13    1
    53    12    14    1
    54    12    15    1
    55    35    26    1
    56    44    39   ar
    57     6     1    1
    58    32    27   ar
    59    50    46   ar
    60    58    51   ar
    61    24    25    1
    62    36    37    1
    63    18    19    1
    64     9    10    1
@<TRIPOS>MOLECULE
*****
 59 64 0 0 0
SMALL
GASTEIGER

@<TRIPOS>ATOM
      1 N          61.5727   88.2181   10.3980 N.3     1  UNL1       -0.2621
      2 C          60.8283   87.0774    9.7695 C.3     1  UNL1        0.0901
      3 C          59.9165   87.3276    8.6051 C.3     1  UNL1        0.0899
      4 N          59.7490   88.7186    8.0691 N.3     1  UNL1       -0.2661
      5 C          60.4933   89.8592    8.6975 C.3     1  UNL1        0.0980
      6 C          61.4051   89.6090    9.8620 C.3     1  UNL1        0.1510
      7 C          62.1494   90.7496   10.4904 C.2     1  UNL1        0.2386
      8 O          61.7932   91.2058   11.8742 O.2     1  UNL1       -0.2736
      9 N          63.2499   91.4340    9.7350 N.am    1  UNL1       -0.2961
     10 H          63.4837   91.1345    8.8268 H       1  UNL1        0.1497
     11 C          63.9942   92.5746   10.3635 C.3     1  UNL1        0.1939
     12 C          65.4008   92.3772   10.8460 C.3     1  UNL1        0.4154
     13 F          66.8072   92.1799   11.3285 F       1  UNL1       -0.1682
     14 F          64.8964   91.5113   11.9621 F       1  UNL1       -0.1682
     15 F          65.9051   93.2432    9.7299 F       1  UNL1       -0.1682
     16 C          62.4845   87.9678   11.5624 C.3     1  UNL1        0.1021
     17 C          62.6681   86.5738   12.0851 C.3     1  UNL1        0.1269
     18 O          61.5395   85.5889   12.0073 O.3     1  UNL1       -0.3830
     19 H          60.7697   86.0112   11.5951 H       1  UNL1        0.2104
     20 C          63.9804   86.1649   12.6857 C.3     1  UNL1        0.0401
     21 C          64.1409   86.1179   14.1763 C.3     1  UNL1        0.0833
     22 O          63.7479   87.3514   16.4289 O.2     1  UNL1       -0.2751
     23 C          64.1119   87.3878   14.9742 C.2     1  UNL1        0.2226
     24 N          64.4469   88.6940   14.3174 N.am    1  UNL1       -0.2999
     25 H          64.6858   88.7179   13.3626 H       1  UNL1        0.1498
     26 C          64.4179   89.9639   15.1152 C.3     1  UNL1        0.1278
     27 C          65.5933   90.8954   15.0854 C.ar    1  UNL1        0.0320
     28 C          66.7976   90.5570   14.2578 C.ar    1  UNL1        0.0004
     29 C          67.9730   91.4884   14.2280 C.ar    1  UNL1       -0.0001
     30 C          67.9440   92.7583   15.0258 C.ar    1  UNL1        0.0031
     31 C          66.7397   93.0967   15.8534 C.ar    1  UNL1        0.0366
     32 C          65.5643   92.1652   15.8832 C.ar    1  UNL1        0.1362
     33 O          64.3599   92.5037   16.7109 O.3     1  UNL1       -0.4730
     34 C          63.1845   91.5722   16.7407 C.3     1  UNL1        0.2364
     35 C          63.2136   90.3023   15.9428 C.3     1  UNL1        0.1762
     36 O          62.0382   89.3708   15.9726 O.3     1  UNL1       -0.3788
     37 H          61.3507   89.7362   16.5512 H       1  UNL1        0.2106
     38 C          64.3303   84.8010   14.8691 C.3     1  UNL1        0.0371
     39 C          63.6607   83.5695   14.3353 C.ar    1  UNL1       -0.0025
     40 C          64.2966   82.7937   13.2200 C.ar    1  UNL1       -0.0011
     41 C          63.6269   81.5622   12.6862 C.ar    1  UNL1        0.0204
     42 C          62.3214   81.1065   13.2677 C.ar    1  UNL1        0.0989
     43 N          61.6856   81.8823   14.3829 N.ar    1  UNL1       -0.2426
     44 C          62.3552   83.1138   14.9168 C.ar    1  UNL1        0.0946
     45 C          58.8372   88.9689    6.9046 C.3     1  UNL1        0.1008
     46 C          59.1442   90.0715    5.9350 C.ar    1  UNL1        0.0129
     47 C          58.2284   91.2003    5.5646 C.ar    1  UNL1        0.0176
     48 C          58.9391   92.0653    4.5664 C.ar    1  UNL1        0.0799
     49 N          60.2942   91.4712    4.3198 N.ar    1  UNL1       -0.3018
     50 C          60.4210   90.2390    5.1657 C.ar    1  UNL1        0.0772
     51 C          61.3391   92.0140    3.3905 C.ar    1  UNL1        0.0940
     52 C          62.7314   91.4568    3.4200 C.ar    1  UNL1        0.0223
     53 C          63.7763   91.9996    2.4907 C.ar    1  UNL1        0.0336
     54 C          63.4288   93.0997    1.5320 C.ar    1  UNL1        0.1697
     55 F          64.4737   93.6425    0.6027 F       1  UNL1       -0.2017
     56 C          62.0364   93.6570    1.5026 C.ar    1  UNL1        0.1960
     57 F          61.6890   94.7570    0.5439 F       1  UNL1       -0.1994
     58 C          60.9917   93.1141    2.4318 C.ar    1  UNL1        0.1856
     59 F          59.5992   93.6714    2.4025 F       1  UNL1       -0.2002
@<TRIPOS>BOND
     1    22    23    2
     2    23    24   am
     3    26    24    1
     4    26    27    1
     5    27    28   ar
     6    28    29   ar
     7    29    30   ar
     8    30    31   ar
     9    31    32   ar
    10    32    33    1
    11    33    34    1
    12    34    35    1
    13    35    36    1
    14    23    21    1
    15    21    38    1
    16    38    39    1
    17    39    40   ar
    18    40    41   ar
    19    41    42   ar
    20    42    43   ar
    21    43    44   ar
    22    21    20    1
    23    20    17    1
    24    17    18    1
    25    17    16    1
    26    16     1    1
    27     1     2    1
    28     2     3    1
    29     3     4    1
    30     4    45    1
    31    45    46    1
    32    46    47   ar
    33    47    48   ar
    34    48    49   ar
    35    49    51    1
    36    51    52   ar
    37    52    53   ar
    38    53    54   ar
    39    54    55    1
    40    54    56   ar
    41    56    57    1
    42    56    58   ar
    43    58    59    1
    44    49    50   ar
    45     4     5    1
    46     5     6    1
    47     6     7    1
    48     7     8    2
    49     7     9   am
    50     9    11    1
    51    11    12    1
    52    12    13    1
    53    12    14    1
    54    12    15    1
    55    35    26    1
    56    44    39   ar
    57     6     1    1
    58    32    27   ar
    59    50    46   ar
    60    58    51   ar
    61    24    25    1
    62    36    37    1
    63    18    19    1
    64     9    10    1
@<TRIPOS>MOLECULE
*****
 59 64 0 0 0
SMALL
GASTEIGER

@<TRIPOS>ATOM
      1 N          61.6404   88.2216    9.7090 N.3     1  UNL1       -0.2621
      2 C          60.9992   87.0925    8.9579 C.3     1  UNL1        0.0901
      3 C          59.9869   87.3817    7.8894 C.3     1  UNL1        0.0899
      4 N          59.6158   88.8000    7.5721 N.3     1  UNL1       -0.2661
      5 C          60.2569   89.9290    8.3231 C.3     1  UNL1        0.0980
      6 C          61.2692   89.6398    9.3916 C.3     1  UNL1        0.1510
      7 C          61.9104   90.7689   10.1427 C.2     1  UNL1        0.2386
      8 O          61.2154   91.3718   11.3274 O.2     1  UNL1       -0.2736
      9 N          63.2465   91.2951    9.7090 N.am    1  UNL1       -0.2961
     10 H          63.7026   90.8994    8.9315 H       1  UNL1        0.1497
     11 C          63.8876   92.4241   10.4601 C.3     1  UNL1        0.1939
     12 C          65.2729   92.2658   11.0135 C.3     1  UNL1        0.4154
     13 F          66.6580   92.1075   11.5668 F       1  UNL1       -0.1682
     14 F          64.7110   91.5819   12.2245 F       1  UNL1       -0.1682
     15 F          65.8347   92.9496    9.8025 F       1  UNL1       -0.1682
     16 C          62.6527   87.9324   10.7774 C.3     1  UNL1        0.1021
     17 C          62.5374   88.5941   12.1187 C.3     1  UNL1        0.1269
     18 O          61.1925   89.0095   12.6370 O.3     1  UNL1       -0.3830
     19 H          60.5103   88.7794   11.9869 H       1  UNL1        0.2104
     20 C          63.7670   88.8404   12.9417 C.3     1  UNL1        0.0401
     21 C          63.9279   88.1640   14.2708 C.3     1  UNL1        0.0833
     22 O          65.1486   85.9900   15.0013 O.2     1  UNL1       -0.2751
     23 C          63.9798   86.6669   14.3490 C.2     1  UNL1        0.2226
     24 N          62.8627   85.8467   13.7750 N.am    1  UNL1       -0.2999
     25 H          62.0955   86.2910   13.3469 H       1  UNL1        0.1498
     26 C          62.9145   84.3497   13.8533 C.3     1  UNL1        0.1278
     27 C          63.2290   83.5450   12.6271 C.ar    1  UNL1        0.0320
     28 C          63.4918   84.2374   11.3227 C.ar    1  UNL1        0.0004
     29 C          63.8064   83.4327   10.0965 C.ar    1  UNL1       -0.0001
     30 C          63.8582   81.9356   10.1747 C.ar    1  UNL1        0.0031
     31 C          63.5954   81.2433   11.4792 C.ar    1  UNL1        0.0366
     32 C          63.2808   82.0480   12.7053 C.ar    1  UNL1        0.1362
     33 O          63.0181   81.3556   14.0098 O.3     1  UNL1       -0.4730
     34 C          62.7035   82.1603   15.2360 C.3     1  UNL1        0.2364
     35 C          62.6517   83.6574   15.1577 C.3     1  UNL1        0.1762
     36 O          62.3371   84.4621   16.3839 O.3     1  UNL1       -0.3788
     37 H          62.1951   83.8649   17.1349 H       1  UNL1        0.2106
     38 C          64.0370   88.9846   15.5216 C.3     1  UNL1        0.0371
     39 C          64.7818   90.2865   15.5020 C.ar    1  UNL1       -0.0025
     40 C          66.0809   90.3962   14.7602 C.ar    1  UNL1       -0.0011
     41 C          66.8257   91.6981   14.7406 C.ar    1  UNL1        0.0204
     42 C          66.2714   92.8902   15.4628 C.ar    1  UNL1        0.0989
     43 N          64.9723   92.7805   16.2046 N.ar    1  UNL1       -0.2426
     44 C          64.2275   91.4787   16.2242 C.ar    1  UNL1        0.0946
     45 C          58.6035   89.0892    6.5036 C.3     1  UNL1        0.1008
     46 C          58.7824   90.2747    5.6020 C.ar    1  UNL1        0.0129
     47 C          57.7372   91.2999    5.2756 C.ar    1  UNL1        0.0176
     48 C          58.3467   92.3018    4.3404 C.ar    1  UNL1        0.0799
     49 N          59.7687   91.8958    4.0889 N.ar    1  UNL1       -0.3018
     50 C          60.0379   90.6430    4.8686 C.ar    1  UNL1        0.0772
     51 C          60.7493   92.6162    3.2116 C.ar    1  UNL1        0.0940
     52 C          60.3463   93.8852    2.5209 C.ar    1  UNL1        0.0223
     53 C          61.3268   94.6056    1.6436 C.ar    1  UNL1        0.0336
     54 C          62.7103   94.0570    1.4571 C.ar    1  UNL1        0.1697
     55 F          63.6909   94.7774    0.5799 F       1  UNL1       -0.2017
     56 C          63.1134   92.7879    2.1479 C.ar    1  UNL1        0.1960
     57 F          64.4969   92.2392    1.9614 F       1  UNL1       -0.1994
     58 C          62.1328   92.0676    3.0251 C.ar    1  UNL1        0.1856
     59 F          62.5358   90.7984    3.7159 F       1  UNL1       -0.2002
@<TRIPOS>BOND
     1    22    23    2
     2    23    24   am
     3    26    24    1
     4    26    27    1
     5    27    28   ar
     6    28    29   ar
     7    29    30   ar
     8    30    31   ar
     9    31    32   ar
    10    32    33    1
    11    33    34    1
    12    34    35    1
    13    35    36    1
    14    23    21    1
    15    21    38    1
    16    38    39    1
    17    39    40   ar
    18    40    41   ar
    19    41    42   ar
    20    42    43   ar
    21    43    44   ar
    22    21    20    1
    23    20    17    1
    24    17    18    1
    25    17    16    1
    26    16     1    1
    27     1     2    1
    28     2     3    1
    29     3     4    1
    30     4    45    1
    31    45    46    1
    32    46    47   ar
    33    47    48   ar
    34    48    49   ar
    35    49    51    1
    36    51    52   ar
    37    52    53   ar
    38    53    54   ar
    39    54    55    1
    40    54    56   ar
    41    56    57    1
    42    56    58   ar
    43    58    59    1
    44    49    50   ar
    45     4     5    1
    46     5     6    1
    47     6     7    1
    48     7     8    2
    49     7     9   am
    50     9    11    1
    51    11    12    1
    52    12    13    1
    53    12    14    1
    54    12    15    1
    55    35    26    1
    56    44    39   ar
    57     6     1    1
    58    32    27   ar
    59    50    46   ar
    60    58    51   ar
    61    24    25    1
    62    36    37    1
    63    18    19    1
    64     9    10    1
@<TRIPOS>MOLECULE
*****
 59 64 0 0 0
SMALL
GASTEIGER

@<TRIPOS>ATOM
      1 N          62.0463   88.2361    9.6954 N.3     1  UNL1       -0.2621
      2 C          61.3639   89.5719    9.6859 C.3     1  UNL1        0.0901
      3 C          60.2394   89.8328    8.7280 C.3     1  UNL1        0.0899
      4 N          59.7974   88.7579    7.7797 N.3     1  UNL1       -0.2661
      5 C          60.4797   87.4222    7.7893 C.3     1  UNL1        0.0980
      6 C          61.6042   87.1613    8.7472 C.3     1  UNL1        0.1510
      7 C          62.2866   85.8256    8.7568 C.2     1  UNL1        0.2386
      8 O          62.5115   85.0890    7.4696 O.2     1  UNL1       -0.2736
      9 N          62.7441   85.2264   10.0536 N.am    1  UNL1       -0.2961
     10 H          62.5965   85.7098   10.8984 H       1  UNL1        0.1497
     11 C          63.4265   83.8906   10.0632 C.3     1  UNL1        0.1939
     12 C          63.6158   83.1543   11.3563 C.3     1  UNL1        0.4154
     13 F          63.8051   82.4181   12.6494 F       1  UNL1       -0.1682
     14 F          62.2101   83.4932   11.7551 F       1  UNL1       -0.1682
     15 F          65.0215   82.8155   10.9576 F       1  UNL1       -0.1682
     16 C          63.1708   87.9752   10.6533 C.3     1  UNL1        0.1021
     17 C          62.8907   87.8455   12.1213 C.3     1  UNL1        0.1269
     18 O          62.7104   86.4880   12.7333 O.3     1  UNL1       -0.3830
     19 H          62.8052   85.8088   12.0472 H       1  UNL1        0.2104
     20 C          62.7910   89.0733   12.9771 C.3     1  UNL1        0.0401
     21 C          64.0368   89.7374   13.4840 C.3     1  UNL1        0.0833
     22 O          63.4564   92.0204   12.3880 O.2     1  UNL1       -0.2751
     23 C          64.4763   91.0493   12.9046 C.2     1  UNL1        0.2226
     24 N          65.9357   91.3901   12.8417 N.am    1  UNL1       -0.2999
     25 H          66.6051   90.7528   13.1807 H       1  UNL1        0.1498
     26 C          66.3752   92.7020   12.2622 C.3     1  UNL1        0.1278
     27 C          67.1116   92.7358   10.9559 C.ar    1  UNL1        0.0320
     28 C          67.4083   91.4578   10.2289 C.ar    1  UNL1        0.0004
     29 C          68.1447   91.4917    8.9225 C.ar    1  UNL1       -0.0001
     30 C          68.5842   92.8035    8.3431 C.ar    1  UNL1        0.0031
     31 C          68.2874   94.0815    9.0700 C.ar    1  UNL1        0.0366
     32 C          67.5511   94.0477   10.3764 C.ar    1  UNL1        0.1362
     33 O          67.2543   95.3258   11.1034 O.3     1  UNL1       -0.4730
     34 C          66.5180   95.2920   12.4098 C.3     1  UNL1        0.2364
     35 C          66.0784   93.9800   12.9892 C.3     1  UNL1        0.1762
     36 O          65.3421   93.9462   14.2956 O.3     1  UNL1       -0.3788
     37 H          65.2337   94.8506   14.6292 H       1  UNL1        0.2106
     38 C          64.8431   89.0896   14.5704 C.3     1  UNL1        0.0371
     39 C          64.2053   88.0786   15.4765 C.ar    1  UNL1       -0.0025
     40 C          63.2924   88.5291   16.5782 C.ar    1  UNL1       -0.0011
     41 C          62.6545   87.5181   17.4843 C.ar    1  UNL1        0.0204
     42 C          62.9296   86.0566   17.2887 C.ar    1  UNL1        0.0989
     43 N          63.8425   85.6060   16.1871 N.ar    1  UNL1       -0.2426
     44 C          64.4803   86.6170   15.2810 C.ar    1  UNL1        0.0946
     45 C          58.6729   89.0188    6.8219 C.3     1  UNL1        0.1008
     46 C          58.7645   90.1578    5.8501 C.ar    1  UNL1        0.0129
     47 C          57.6427   91.0717    5.4545 C.ar    1  UNL1        0.0176
     48 C          58.1788   92.0616    4.4632 C.ar    1  UNL1        0.0799
     49 N          59.6320   91.7595    4.2461 N.ar    1  UNL1       -0.3018
     50 C          59.9939   90.5829    5.1032 C.ar    1  UNL1        0.0772
     51 C          60.5602   92.5034    3.3323 C.ar    1  UNL1        0.0940
     52 C          60.0702   93.7070    2.5832 C.ar    1  UNL1        0.0223
     53 C          60.9984   94.4509    1.6695 C.ar    1  UNL1        0.0336
     54 C          62.4167   93.9912    1.5048 C.ar    1  UNL1        0.1697
     55 F          63.3449   94.7351    0.5910 F       1  UNL1       -0.2017
     56 C          62.9068   92.7875    2.2539 C.ar    1  UNL1        0.1960
     57 F          64.3250   92.3278    2.0892 F       1  UNL1       -0.1994
     58 C          61.9785   92.0437    3.1676 C.ar    1  UNL1        0.1856
     59 F          62.4686   90.8400    3.9168 F       1  UNL1       -0.2002
@<TRIPOS>BOND
     1    22    23    2
     2    23    24   am
     3    26    24    1
     4    26    27    1
     5    27    28   ar
     6    28    29   ar
     7    29    30   ar
     8    30    31   ar
     9    31    32   ar
    10    32    33    1
    11    33    34    1
    12    34    35    1
    13    35    36    1
    14    23    21    1
    15    21    38    1
    16    38    39    1
    17    39    40   ar
    18    40    41   ar
    19    41    42   ar
    20    42    43   ar
    21    43    44   ar
    22    21    20    1
    23    20    17    1
    24    17    18    1
    25    17    16    1
    26    16     1    1
    27     1     2    1
    28     2     3    1
    29     3     4    1
    30     4    45    1
    31    45    46    1
    32    46    47   ar
    33    47    48   ar
    34    48    49   ar
    35    49    51    1
    36    51    52   ar
    37    52    53   ar
    38    53    54   ar
    39    54    55    1
    40    54    56   ar
    41    56    57    1
    42    56    58   ar
    43    58    59    1
    44    49    50   ar
    45     4     5    1
    46     5     6    1
    47     6     7    1
    48     7     8    2
    49     7     9   am
    50     9    11    1
    51    11    12    1
    52    12    13    1
    53    12    14    1
    54    12    15    1
    55    35    26    1
    56    44    39   ar
    57     6     1    1
    58    32    27   ar
    59    50    46   ar
    60    58    51   ar
    61    24    25    1
    62    36    37    1
    63    18    19    1
    64     9    10    1
@<TRIPOS>MOLECULE
*****
 59 64 0 0 0
SMALL
GASTEIGER

@<TRIPOS>ATOM
      1 N          63.3998   89.3343   12.7460 N.3     1  UNL1       -0.2621
      2 C          63.0176   87.9714   12.2496 C.3     1  UNL1        0.0901
      3 C          63.3701   86.7546   13.0528 C.3     1  UNL1        0.0899
      4 N          64.1048   86.9007   14.3524 N.3     1  UNL1       -0.2661
      5 C          64.4870   88.2636   14.8488 C.3     1  UNL1        0.0980
      6 C          64.1345   89.4804   14.0456 C.3     1  UNL1        0.1510
      7 C          64.5167   90.8433   14.5419 C.2     1  UNL1        0.2386
      8 O          63.5631   91.6252   15.3958 O.2     1  UNL1       -0.2736
      9 N          65.8527   91.4244   14.1843 N.am    1  UNL1       -0.2961
     10 H          66.4786   90.9112   13.6239 H       1  UNL1        0.1497
     11 C          66.2349   92.7873   14.6807 C.3     1  UNL1        0.1939
     12 C          67.4529   92.9584   15.5393 C.3     1  UNL1        0.4154
     13 F          68.6708   93.1296   16.3980 F       1  UNL1       -0.1682
     14 F          68.2895   93.1647   14.3116 F       1  UNL1       -0.1682
     15 F          66.6163   92.7522   16.7671 F       1  UNL1       -0.1682
     16 C          63.0473   90.5512   11.9429 C.3     1  UNL1        0.1021
     17 C          61.9889   90.4695   10.8830 C.3     1  UNL1        0.1269
     18 O          60.7630   91.3284   10.9795 O.3     1  UNL1       -0.3830
     19 H          60.8123   91.8734   11.7804 H       1  UNL1        0.2104
     20 C          62.1565   89.5289    9.7266 C.3     1  UNL1        0.0401
     21 C          60.9508   88.9208    9.0736 C.3     1  UNL1        0.0833
     22 O          59.1670   90.7763    8.7198 O.2     1  UNL1       -0.2751
     23 C          60.0992   89.7459    8.1549 C.2     1  UNL1        0.2226
     24 N          60.1799   89.5405    6.6712 N.am    1  UNL1       -0.2999
     25 H          60.7918   88.8642    6.3004 H       1  UNL1        0.1498
     26 C          59.3283   90.3655    5.7524 C.3     1  UNL1        0.1278
     27 C          59.9699   91.2096    4.6913 C.ar    1  UNL1        0.0320
     28 C          61.4629   91.2287    4.5490 C.ar    1  UNL1        0.0004
     29 C          62.1045   92.0728    3.4879 C.ar    1  UNL1       -0.0001
     30 C          61.2529   92.8978    2.5691 C.ar    1  UNL1        0.0031
     31 C          59.7598   92.8787    2.7115 C.ar    1  UNL1        0.0366
     32 C          59.1183   92.0346    3.7726 C.ar    1  UNL1        0.1362
     33 O          57.6251   92.0155    3.9149 O.3     1  UNL1       -0.4730
     34 C          56.9836   91.1714    4.9759 C.3     1  UNL1        0.2364
     35 C          57.8353   90.3464    5.8947 C.3     1  UNL1        0.1762
     36 O          57.1937   89.5023    6.9558 O.3     1  UNL1       -0.3788
     37 H          56.2301   89.6040    6.9112 H       1  UNL1        0.2106
     38 C          60.5967   87.4876    9.3394 C.3     1  UNL1        0.0371
     39 C          61.0610   86.4138    8.4006 C.ar    1  UNL1       -0.0025
     40 C          62.4627   85.8884    8.4966 C.ar    1  UNL1       -0.0011
     41 C          62.9270   84.8146    7.5577 C.ar    1  UNL1        0.0204
     42 C          61.9897   84.2662    6.5230 C.ar    1  UNL1        0.0989
     43 N          60.5880   84.7917    6.4271 N.ar    1  UNL1       -0.2426
     44 C          60.1237   85.8654    7.3658 C.ar    1  UNL1        0.0946
     45 C          64.4573   85.6839   15.1556 C.3     1  UNL1        0.1008
     46 C          63.7256   84.3950   14.9247 C.ar    1  UNL1        0.0129
     47 C          62.6504   83.8225   15.8002 C.ar    1  UNL1        0.0176
     48 C          62.2008   82.5260   15.1945 C.ar    1  UNL1        0.0799
     49 N          62.9981   82.2972   13.9446 N.ar    1  UNL1       -0.3018
     50 C          63.9404   83.4523   13.7780 C.ar    1  UNL1        0.0772
     51 C          62.8747   81.1200   13.0233 C.ar    1  UNL1        0.0940
     52 C          62.5496   79.7646   13.5776 C.ar    1  UNL1        0.0223
     53 C          62.4262   78.5873   12.6562 C.ar    1  UNL1        0.0336
     54 C          62.6278   78.7656   11.1806 C.ar    1  UNL1        0.1697
     55 F          62.5044   77.5883   10.2592 F       1  UNL1       -0.2017
     56 C          62.9529   80.1210   10.6262 C.ar    1  UNL1        0.1960
     57 F          63.1545   80.2991    9.1506 F       1  UNL1       -0.1994
     58 C          63.0763   81.2981   11.5476 C.ar    1  UNL1        0.1856
     59 F          63.4014   82.6536   10.9933 F       1  UNL1       -0.2002
@<TRIPOS>BOND
     1    22    23    2
     2    23    24   am
     3    26    24    1
     4    26    27    1
     5    27    28   ar
     6    28    29   ar
     7    29    30   ar
     8    30    31   ar
     9    31    32   ar
    10    32    33    1
    11    33    34    1
    12    34    35    1
    13    35    36    1
    14    23    21    1
    15    21    38    1
    16    38    39    1
    17    39    40   ar
    18    40    41   ar
    19    41    42   ar
    20    42    43   ar
    21    43    44   ar
    22    21    20    1
    23    20    17    1
    24    17    18    1
    25    17    16    1
    26    16     1    1
    27     1     2    1
    28     2     3    1
    29     3     4    1
    30     4    45    1
    31    45    46    1
    32    46    47   ar
    33    47    48   ar
    34    48    49   ar
    35    49    51    1
    36    51    52   ar
    37    52    53   ar
    38    53    54   ar
    39    54    55    1
    40    54    56   ar
    41    56    57    1
    42    56    58   ar
    43    58    59    1
    44    49    50   ar
    45     4     5    1
    46     5     6    1
    47     6     7    1
    48     7     8    2
    49     7     9   am
    50     9    11    1
    51    11    12    1
    52    12    13    1
    53    12    14    1
    54    12    15    1
    55    35    26    1
    56    44    39   ar
    57     6     1    1
    58    32    27   ar
    59    50    46   ar
    60    58    51   ar
    61    24    25    1
    62    36    37    1
    63    18    19    1
    64     9    10    1
