@<TRIPOS>MOLECULE
*****
 44 49 0 0 0
SMALL
GASTEIGER

@<TRIPOS>ATOM
      1 C          63.5877   87.2382   13.6816 C.ar    1  UNL1        0.1499
      2 N          63.6140   85.7514   13.8779 N.ar    1  UNL1       -0.2222
      3 C          63.1251   85.1082   12.6141 C.ar    1  UNL1        0.1476
      4 N          62.7966   86.1975   11.6366 N.ar    1  UNL1       -0.2919
      5 C          63.0825   87.5140   12.2963 C.ar    1  UNL1        0.0894
      6 C          62.9886   83.6345   12.3704 C.ar    1  UNL1        0.0345
      7 C          63.5370   83.0282   11.1128 C.ar    1  UNL1        0.0030
      8 C          63.4004   81.5545   10.8692 C.ar    1  UNL1        0.0001
      9 C          62.7155   80.6869   11.8833 C.ar    1  UNL1        0.0000
     10 C          62.1672   81.2932   13.1409 C.ar    1  UNL1        0.0001
     11 C          62.3037   82.7669   13.3845 C.ar    1  UNL1        0.0030
     12 C          62.2740   86.0044   10.2439 C.ar    1  UNL1        0.0651
     13 C          60.8692   86.4083    9.9073 C.ar    1  UNL1        0.0176
     14 C          60.3466   86.2152    8.5146 C.ar    1  UNL1        0.0015
     15 C          61.2288   85.6181    7.4586 C.ar    1  UNL1        0.0001
     16 C          62.6336   85.2142    7.7952 C.ar    1  UNL1        0.0015
     17 C          63.1562   85.4073    9.1879 C.ar    1  UNL1        0.0176
     18 N          63.0573   88.6419   15.8025 N.am    1  UNL1       -0.2995
     19 C          63.9950   88.2685   14.6929 C.2     1  UNL1        0.2648
     20 O          65.3400   88.9252   14.5945 O.2     1  UNL1       -0.2684
     21 H          62.1745   88.2109   15.8671 H       1  UNL1        0.1498
     22 C          63.4646   89.6722   16.8138 C.3     1  UNL1        0.0912
     23 C          63.3633   91.1312   16.4807 C.3     1  UNL1        0.0386
     24 C          64.6060   91.9646   16.3755 C.3     1  UNL1        0.0739
     25 N          66.4264   92.7905   12.3439 N.pl3   1  UNL1       -0.3049
     26 C          67.1518   93.1979   13.5920 C.3     1  UNL1        0.1081
     27 C          66.5450   92.9226   14.9358 C.3     1  UNL1        0.0938
     28 N          65.2128   92.2399   15.0316 N.3     1  UNL1       -0.2697
     29 C          64.4874   91.8325   13.7835 C.3     1  UNL1        0.0938
     30 C          65.0942   92.1078   12.4396 C.3     1  UNL1        0.1081
     31 C          65.8472   95.3765   10.9377 C.3     1  UNL1        0.0332
     32 C          66.7436   94.3588   10.2969 C.ar    1  UNL1        0.0020
     33 C          67.3505   94.6341    8.9531 C.ar    1  UNL1        0.0549
     34 CL         67.0609   95.9271    8.2500 Cl      1  UNL1       -0.0825
     35 C          68.2470   93.6164    8.3123 C.ar    1  UNL1        0.0112
     36 C          68.5366   92.3234    9.0153 C.ar    1  UNL1        0.0021
     37 C          67.9298   92.0481   10.3591 C.ar    1  UNL1        0.0143
     38 C          67.0333   93.0658   11.0000 C.ar    1  UNL1        0.0447
     39 C          62.8960   88.8683   11.6792 C.3     1  UNL1        0.1746
     40 N          61.5180   89.4423   11.5322 N.ar    1  UNL1       -0.2239
     41 C          60.9854   90.1593   10.3271 C.ar    1  UNL1        0.1976
     42 N          59.5688   90.5601   10.6146 N.ar    1  UNL1       -0.2007
     43 C          59.2260   90.0909   11.9975 C.ar    1  UNL1        0.2210
     44 N          60.4306   89.4001   12.5646 N.ar    1  UNL1       -0.1448
@<TRIPOS>BOND
     1    31    32    1
     2    32    33   ar
     3    33    34    1
     4    33    35   ar
     5    35    36   ar
     6    36    37   ar
     7    37    38   ar
     8    38    25    1
     9    25    26    1
    10    26    27    1
    11    27    28    1
    12    28    24    1
    13    24    23    1
    14    23    22    1
    15    22    18    1
    16    18    19   am
    17    19    20    2
    18    19     1    1
    19     1     2   ar
    20     2     3   ar
    21     3     6    1
    22     6     7   ar
    23     7     8   ar
    24     8     9   ar
    25     9    10   ar
    26    10    11   ar
    27     3     4   ar
    28     4    12    1
    29    12    13   ar
    30    13    14   ar
    31    14    15   ar
    32    15    16   ar
    33    16    17   ar
    34     4     5   ar
    35     5    39    1
    36    39    40    1
    37    40    41   ar
    38    41    42   ar
    39    42    43   ar
    40    43    44   ar
    41    28    29    1
    42    29    30    1
    43    38    32   ar
    44    30    25    1
    45     5     1   ar
    46    44    40   ar
    47    11     6   ar
    48    17    12   ar
    49    18    21    1
@<TRIPOS>MOLECULE
*****
 44 49 0 0 0
SMALL
GASTEIGER

@<TRIPOS>ATOM
      1 C          63.1401   90.9710   11.5787 C.ar    1  UNL1        0.1499
      2 N          64.0303   91.5084   10.4976 N.ar    1  UNL1       -0.2222
      3 C          65.2538   92.0833   11.1476 C.ar    1  UNL1        0.1476
      4 N          65.1199   91.9011   12.6304 N.ar    1  UNL1       -0.2919
      5 C          63.8136   91.2137   12.8969 C.ar    1  UNL1        0.0894
      6 C          66.4086   92.7272   10.4392 C.ar    1  UNL1        0.0345
      7 C          67.6245   91.9180   10.0975 C.ar    1  UNL1        0.0030
      8 C          68.7792   92.5620    9.3891 C.ar    1  UNL1        0.0001
      9 C          68.7180   94.0152    9.0224 C.ar    1  UNL1        0.0000
     10 C          67.5021   94.8244    9.3640 C.ar    1  UNL1        0.0001
     11 C          66.3474   94.1804   10.0724 C.ar    1  UNL1        0.0030
     12 C          66.1172   92.3309   13.6652 C.ar    1  UNL1        0.0651
     13 C          66.7876   91.3064   14.5317 C.ar    1  UNL1        0.0176
     14 C          67.7848   91.7361   15.5665 C.ar    1  UNL1        0.0015
     15 C          68.1117   93.1904   15.7347 C.ar    1  UNL1        0.0001
     16 C          67.4413   94.2149   14.8682 C.ar    1  UNL1        0.0015
     17 C          66.4440   93.7851   13.8334 C.ar    1  UNL1        0.0176
     18 N          61.2504   90.1543    9.9937 N.am    1  UNL1       -0.2995
     19 C          61.8101   90.3074   11.3770 C.2     1  UNL1        0.2648
     20 O          61.0398   89.7969   12.5585 O.2     1  UNL1       -0.2684
     21 H          61.7559   90.4894    9.2182 H       1  UNL1        0.1498
     22 C          59.9203   89.4907    9.7921 C.3     1  UNL1        0.0912
     23 C          59.7209   88.5434    8.6464 C.3     1  UNL1        0.0386
     24 C          60.8060   87.5767    8.2749 C.3     1  UNL1        0.0739
     25 N          62.6453   84.9399   11.4235 N.pl3   1  UNL1       -0.3049
     26 C          61.5461   85.8920   11.7911 C.3     1  UNL1        0.1081
     27 C          60.9330   86.7709   10.7416 C.3     1  UNL1        0.0938
     28 N          61.4191   86.6978    9.3244 N.3     1  UNL1       -0.2697
     29 C          62.5184   85.7457    8.9568 C.3     1  UNL1        0.0938
     30 C          63.1315   84.8667   10.0064 C.3     1  UNL1        0.1081
     31 C          62.1000   81.9899   11.4155 C.3     1  UNL1        0.0332
     32 C          62.9858   82.5860   12.4691 C.ar    1  UNL1        0.0020
     33 C          63.5989   81.7071   13.5187 C.ar    1  UNL1        0.0549
     34 CL         63.3262   80.2321   13.5147 Cl      1  UNL1       -0.0825
     35 C          64.4846   82.3032   14.5723 C.ar    1  UNL1        0.0112
     36 C          64.7573   83.7782   14.5763 C.ar    1  UNL1        0.0021
     37 C          64.1442   84.6571   13.5268 C.ar    1  UNL1        0.0143
     38 C          63.2584   84.0610   12.4732 C.ar    1  UNL1        0.0447
     39 C          63.2752   90.8354   14.2448 C.3     1  UNL1        0.1746
     40 N          63.5277   89.4630   14.7952 N.ar    1  UNL1       -0.2239
     41 C          64.2916   88.3665   14.1140 C.ar    1  UNL1        0.1976
     42 N          64.2965   87.1721   15.0213 N.ar    1  UNL1       -0.2007
     43 C          63.5356   87.5304   16.2633 C.ar    1  UNL1        0.2210
     44 N          63.0604   88.9462   16.1236 N.ar    1  UNL1       -0.1448
@<TRIPOS>BOND
     1    31    32    1
     2    32    33   ar
     3    33    34    1
     4    33    35   ar
     5    35    36   ar
     6    36    37   ar
     7    37    38   ar
     8    38    25    1
     9    25    26    1
    10    26    27    1
    11    27    28    1
    12    28    24    1
    13    24    23    1
    14    23    22    1
    15    22    18    1
    16    18    19   am
    17    19    20    2
    18    19     1    1
    19     1     2   ar
    20     2     3   ar
    21     3     6    1
    22     6     7   ar
    23     7     8   ar
    24     8     9   ar
    25     9    10   ar
    26    10    11   ar
    27     3     4   ar
    28     4    12    1
    29    12    13   ar
    30    13    14   ar
    31    14    15   ar
    32    15    16   ar
    33    16    17   ar
    34     4     5   ar
    35     5    39    1
    36    39    40    1
    37    40    41   ar
    38    41    42   ar
    39    42    43   ar
    40    43    44   ar
    41    28    29    1
    42    29    30    1
    43    38    32   ar
    44    30    25    1
    45     5     1   ar
    46    44    40   ar
    47    11     6   ar
    48    17    12   ar
    49    18    21    1
@<TRIPOS>MOLECULE
*****
 44 49 0 0 0
SMALL
GASTEIGER

@<TRIPOS>ATOM
      1 C          63.4446   91.2151   11.2288 C.ar    1  UNL1        0.1499
      2 N          63.8911   92.3815   10.3982 N.ar    1  UNL1       -0.2222
      3 C          65.1413   92.9371   11.0133 C.ar    1  UNL1        0.1476
      4 N          65.4675   92.1140   12.2241 N.ar    1  UNL1       -0.2919
      5 C          64.4188   91.0497   12.3574 C.ar    1  UNL1        0.0894
      6 C          65.9274   94.1098   10.5065 C.ar    1  UNL1        0.0345
      7 C          66.9077   93.9278    9.3860 C.ar    1  UNL1        0.0030
      8 C          67.6938   95.1005    8.8793 C.ar    1  UNL1        0.0001
      9 C          67.4994   96.4553    9.4932 C.ar    1  UNL1        0.0000
     10 C          66.5190   96.6373   10.6137 C.ar    1  UNL1        0.0001
     11 C          65.7330   95.4645   11.1204 C.ar    1  UNL1        0.0030
     12 C          66.6369   92.3192   13.1408 C.ar    1  UNL1        0.0651
     13 C          66.5014   93.2071   14.3422 C.ar    1  UNL1        0.0176
     14 C          67.6708   93.4122   15.2589 C.ar    1  UNL1        0.0015
     15 C          68.9757   92.7295   14.9743 C.ar    1  UNL1        0.0001
     16 C          69.1112   91.8415   13.7729 C.ar    1  UNL1        0.0015
     17 C          67.9418   91.6364   12.8562 C.ar    1  UNL1        0.0176
     18 N          61.5530   90.4088    9.6407 N.am    1  UNL1       -0.2995
     19 C          62.2360   90.3635   10.9755 C.2     1  UNL1        0.2648
     20 O          61.7105   89.4665   12.0568 O.2     1  UNL1       -0.2684
     21 H          61.8979   90.9975    8.9310 H       1  UNL1        0.1498
     22 C          60.3444   89.5572    9.3874 C.3     1  UNL1        0.0912
     23 C          60.1891   88.8470    8.0754 C.3     1  UNL1        0.0386
     24 C          60.4799   87.3787    7.9784 C.3     1  UNL1        0.0739
     25 N          62.4834   85.2508   11.4001 N.pl3   1  UNL1       -0.3049
     26 C          61.2908   86.1243   11.6552 C.3     1  UNL1        0.1081
     27 C          60.6230   86.8335   10.5146 C.3     1  UNL1        0.0938
     28 N          61.1477   86.6694    9.1189 N.3     1  UNL1       -0.2697
     29 C          62.3402   85.7960    8.8639 C.3     1  UNL1        0.0938
     30 C          63.0080   85.0867   10.0045 C.3     1  UNL1        0.1081
     31 C          62.4567   82.2535   11.5247 C.3     1  UNL1        0.0332
     32 C          63.1378   83.0429   12.6030 C.ar    1  UNL1        0.0020
     33 C          63.8056   82.3337   13.7436 C.ar    1  UNL1        0.0549
     34 CL         63.7923   80.8350   13.8059 Cl      1  UNL1       -0.0825
     35 C          64.4868   83.1231   14.8220 C.ar    1  UNL1        0.0112
     36 C          64.5001   84.6217   14.7597 C.ar    1  UNL1        0.0021
     37 C          63.8323   85.3309   13.6191 C.ar    1  UNL1        0.0143
     38 C          63.1512   84.5415   12.5408 C.ar    1  UNL1        0.0447
     39 C          64.3555   90.0038   13.4307 C.3     1  UNL1        0.1746
     40 N          63.9645   90.3853   14.8277 N.ar    1  UNL1       -0.2239
     41 C          63.3490   89.4769   15.8503 C.ar    1  UNL1        0.1976
     42 N          63.1245   90.2724   17.1019 N.ar    1  UNL1       -0.2007
     43 C          63.6012   91.6727   16.8528 C.ar    1  UNL1        0.2210
     44 N          64.1203   91.7425   15.4473 N.ar    1  UNL1       -0.1448
@<TRIPOS>BOND
     1    31    32    1
     2    32    33   ar
     3    33    34    1
     4    33    35   ar
     5    35    36   ar
     6    36    37   ar
     7    37    38   ar
     8    38    25    1
     9    25    26    1
    10    26    27    1
    11    27    28    1
    12    28    24    1
    13    24    23    1
    14    23    22    1
    15    22    18    1
    16    18    19   am
    17    19    20    2
    18    19     1    1
    19     1     2   ar
    20     2     3   ar
    21     3     6    1
    22     6     7   ar
    23     7     8   ar
    24     8     9   ar
    25     9    10   ar
    26    10    11   ar
    27     3     4   ar
    28     4    12    1
    29    12    13   ar
    30    13    14   ar
    31    14    15   ar
    32    15    16   ar
    33    16    17   ar
    34     4     5   ar
    35     5    39    1
    36    39    40    1
    37    40    41   ar
    38    41    42   ar
    39    42    43   ar
    40    43    44   ar
    41    28    29    1
    42    29    30    1
    43    38    32   ar
    44    30    25    1
    45     5     1   ar
    46    44    40   ar
    47    11     6   ar
    48    17    12   ar
    49    18    21    1
@<TRIPOS>MOLECULE
*****
 44 49 0 0 0
SMALL
GASTEIGER

@<TRIPOS>ATOM
      1 C          62.9749   90.7874   11.2564 C.ar    1  UNL1        0.1499
      2 N          63.7145   91.7016   10.3252 N.ar    1  UNL1       -0.2222
      3 C          64.9085   92.2406   11.0560 C.ar    1  UNL1        0.1476
      4 N          64.9068   91.6594   12.4389 N.ar    1  UNL1       -0.2919
      5 C          63.7117   90.7612   12.5628 C.ar    1  UNL1        0.0894
      6 C          65.9256   93.1934   10.5015 C.ar    1  UNL1        0.0345
      7 C          67.1495   92.6666    9.8126 C.ar    1  UNL1        0.0030
      8 C          68.1666   93.6195    9.2581 C.ar    1  UNL1        0.0001
      9 C          67.9597   95.0991    9.3923 C.ar    1  UNL1        0.0000
     10 C          66.7358   95.6258   10.0811 C.ar    1  UNL1        0.0001
     11 C          65.7187   94.6730   10.6357 C.ar    1  UNL1        0.0030
     12 C          65.9218   91.9290   13.5098 C.ar    1  UNL1        0.0651
     13 C          65.4739   92.3370   14.8820 C.ar    1  UNL1        0.0176
     14 C          66.4889   92.6066   15.9530 C.ar    1  UNL1        0.0015
     15 C          67.9519   92.4681   15.6518 C.ar    1  UNL1        0.0001
     16 C          68.3998   92.0601   14.2796 C.ar    1  UNL1        0.0015
     17 C          67.3847   91.7905   13.2087 C.ar    1  UNL1        0.0176
     18 N          61.3426   89.7719    9.5087 N.am    1  UNL1       -0.2995
     19 C          61.7190   90.0319   10.9373 C.2     1  UNL1        0.2648
     20 O          60.8394   89.5363   12.0467 O.2     1  UNL1       -0.2684
     21 H          61.9198   90.0972    8.7805 H       1  UNL1        0.1498
     22 C          60.0866   89.0164    9.1896 C.3     1  UNL1        0.0912
     23 C          59.7287   88.7251    7.7623 C.3     1  UNL1        0.0386
     24 C          58.7995   89.6394    7.0205 C.3     1  UNL1        0.0739
     25 N          60.3604   92.1863    3.6549 N.pl3   1  UNL1       -0.3049
     26 C          58.9069   92.2372    4.0221 C.3     1  UNL1        0.1081
     27 C          58.3866   91.3883    5.1439 C.3     1  UNL1        0.0938
     28 N          59.3198   90.4884    5.8986 N.3     1  UNL1       -0.2697
     29 C          60.7733   90.4375    5.5314 C.3     1  UNL1        0.0938
     30 C          61.2935   91.2865    4.4095 C.3     1  UNL1        0.1081
     31 C          63.1456   91.7656    2.6225 C.3     1  UNL1        0.0332
     32 C          62.2732   92.8249    2.0168 C.ar    1  UNL1        0.0020
     33 C          62.7934   93.6739    0.8950 C.ar    1  UNL1        0.0549
     34 CL         64.1861   93.4636    0.3788 Cl      1  UNL1       -0.0825
     35 C          61.9211   94.7332    0.2893 C.ar    1  UNL1        0.0112
     36 C          60.5285   94.9436    0.8055 C.ar    1  UNL1        0.0021
     37 C          60.0083   94.0946    1.9273 C.ar    1  UNL1        0.0143
     38 C          60.8807   93.0353    2.5330 C.ar    1  UNL1        0.0447
     39 C          63.3220   89.9751   13.7792 C.3     1  UNL1        0.1746
     40 N          63.6703   88.5192   13.8748 N.ar    1  UNL1       -0.2239
     41 C          64.3811   87.8557   15.0170 C.ar    1  UNL1        0.1976
     42 N          64.5189   86.3977   14.6930 N.ar    1  UNL1       -0.2007
     43 C          63.8933   86.1600   13.3505 C.ar    1  UNL1        0.2210
     44 N          63.3688   87.4712   12.8449 N.ar    1  UNL1       -0.1448
@<TRIPOS>BOND
     1    31    32    1
     2    32    33   ar
     3    33    34    1
     4    33    35   ar
     5    35    36   ar
     6    36    37   ar
     7    37    38   ar
     8    38    25    1
     9    25    26    1
    10    26    27    1
    11    27    28    1
    12    28    24    1
    13    24    23    1
    14    23    22    1
    15    22    18    1
    16    18    19   am
    17    19    20    2
    18    19     1    1
    19     1     2   ar
    20     2     3   ar
    21     3     6    1
    22     6     7   ar
    23     7     8   ar
    24     8     9   ar
    25     9    10   ar
    26    10    11   ar
    27     3     4   ar
    28     4    12    1
    29    12    13   ar
    30    13    14   ar
    31    14    15   ar
    32    15    16   ar
    33    16    17   ar
    34     4     5   ar
    35     5    39    1
    36    39    40    1
    37    40    41   ar
    38    41    42   ar
    39    42    43   ar
    40    43    44   ar
    41    28    29    1
    42    29    30    1
    43    38    32   ar
    44    30    25    1
    45     5     1   ar
    46    44    40   ar
    47    11     6   ar
    48    17    12   ar
    49    18    21    1
@<TRIPOS>MOLECULE
*****
 44 49 0 0 0
SMALL
GASTEIGER

@<TRIPOS>ATOM
      1 C          63.2019   89.0366   12.8697 C.ar    1  UNL1        0.1499
      2 N          62.4190   88.9605   11.5925 N.ar    1  UNL1       -0.2222
      3 C          62.3076   87.5164   11.2024 C.ar    1  UNL1        0.1476
      4 N          63.0216   86.7000   12.2386 N.ar    1  UNL1       -0.2919
      5 C          63.5743   87.6395   13.2691 C.ar    1  UNL1        0.0894
      6 C          61.6055   86.9824    9.9893 C.ar    1  UNL1        0.0345
      7 C          60.1540   87.2885    9.7673 C.ar    1  UNL1        0.0030
      8 C          59.4519   86.7544    8.5541 C.ar    1  UNL1        0.0001
      9 C          60.2014   85.9144    7.5628 C.ar    1  UNL1        0.0000
     10 C          61.6530   85.6083    7.7848 C.ar    1  UNL1        0.0001
     11 C          62.3550   86.1424    8.9980 C.ar    1  UNL1        0.0030
     12 C          63.1589   85.2063   12.2435 C.ar    1  UNL1        0.0651
     13 C          62.4724   84.3935   13.3009 C.ar    1  UNL1        0.0176
     14 C          62.6097   82.8999   13.3058 C.ar    1  UNL1        0.0015
     15 C          63.4334   82.2189   12.2533 C.ar    1  UNL1        0.0001
     16 C          64.1199   83.0317   11.1958 C.ar    1  UNL1        0.0015
     17 C          63.9826   84.5253   11.1909 C.ar    1  UNL1        0.0176
     18 N          63.3700   90.3513   15.1043 N.am    1  UNL1       -0.2995
     19 C          63.5510   90.2898   13.6165 C.2     1  UNL1        0.2648
     20 O          64.0811   91.4814   12.8756 O.2     1  UNL1       -0.2684
     21 H          63.0220   89.5692   15.5907 H       1  UNL1        0.1498
     22 C          63.7191   91.6045   15.8511 C.3     1  UNL1        0.0912
     23 C          64.8791   91.6124   16.8020 C.3     1  UNL1        0.0386
     24 C          66.1336   92.3549   16.4485 C.3     1  UNL1        0.0739
     25 N          67.2039   93.0367   12.1312 N.pl3   1  UNL1       -0.3049
     26 C          66.4730   94.0978   12.8993 C.3     1  UNL1        0.1081
     27 C          66.1163   93.8705   14.3384 C.3     1  UNL1        0.0938
     28 N          66.4904   92.5821   15.0094 N.3     1  UNL1       -0.2697
     29 C          67.2212   91.5211   14.2413 C.3     1  UNL1        0.0938
     30 C          67.5780   91.7484   12.8021 C.3     1  UNL1        0.1081
     31 C          66.4501   95.6108   10.7874 C.3     1  UNL1        0.0332
     32 C          67.1837   94.5511   10.0201 C.ar    1  UNL1        0.0020
     33 C          67.5405   94.7783    8.5810 C.ar    1  UNL1        0.0549
     34 CL         67.1636   96.0654    7.9091 Cl      1  UNL1       -0.0825
     35 C          68.2741   93.7186    7.8138 C.ar    1  UNL1        0.0112
     36 C          68.6510   92.4315    8.4857 C.ar    1  UNL1        0.0021
     37 C          68.2943   92.2043    9.9247 C.ar    1  UNL1        0.0143
     38 C          67.5606   93.2640   10.6920 C.ar    1  UNL1        0.0447
     39 C          64.3613   87.2503   14.4852 C.3     1  UNL1        0.1746
     40 N          63.6530   86.9545   15.7740 N.ar    1  UNL1       -0.2239
     41 C          63.3194   85.5915   16.3041 C.ar    1  UNL1        0.1976
     42 N          62.6142   85.7645   17.6166 N.ar    1  UNL1       -0.2007
     43 C          62.5119   87.2344   17.8977 C.ar    1  UNL1        0.2210
     44 N          63.1539   87.9698   16.7589 N.ar    1  UNL1       -0.1448
@<TRIPOS>BOND
     1    31    32    1
     2    32    33   ar
     3    33    34    1
     4    33    35   ar
     5    35    36   ar
     6    36    37   ar
     7    37    38   ar
     8    38    25    1
     9    25    26    1
    10    26    27    1
    11    27    28    1
    12    28    24    1
    13    24    23    1
    14    23    22    1
    15    22    18    1
    16    18    19   am
    17    19    20    2
    18    19     1    1
    19     1     2   ar
    20     2     3   ar
    21     3     6    1
    22     6     7   ar
    23     7     8   ar
    24     8     9   ar
    25     9    10   ar
    26    10    11   ar
    27     3     4   ar
    28     4    12    1
    29    12    13   ar
    30    13    14   ar
    31    14    15   ar
    32    15    16   ar
    33    16    17   ar
    34     4     5   ar
    35     5    39    1
    36    39    40    1
    37    40    41   ar
    38    41    42   ar
    39    42    43   ar
    40    43    44   ar
    41    28    29    1
    42    29    30    1
    43    38    32   ar
    44    30    25    1
    45     5     1   ar
    46    44    40   ar
    47    11     6   ar
    48    17    12   ar
    49    18    21    1
