@<TRIPOS>MOLECULE
*****
 32 35 0 0 0
SMALL
GASTEIGER

@<TRIPOS>ATOM
      1 C          64.7251   90.4683   13.9775 C.3     1  UNL1        0.1569
      2 N          64.7012   88.9735   13.8543 N.am    1  UNL1       -0.2939
      3 C          63.9803   88.1480   14.8784 C.2     1  UNL1        0.2522
      4 O          63.2833   88.8172   16.0257 O.2     1  UNL1       -0.2696
      5 H          65.1586   88.5343   13.1013 H       1  UNL1        0.1502
      6 C          63.9564   86.6532   14.7552 C.ar    1  UNL1        0.0828
      7 C          64.1817   85.6731   15.8681 C.ar    1  UNL1        0.0115
      8 C          64.0675   84.2903   15.2981 C.ar    1  UNL1        0.0071
      9 C          63.7717   84.4158   13.8329 C.ar    1  UNL1        0.0296
     10 S          63.7030   85.8763   13.4973 S.2     1  UNL1       -0.0824
     11 C          63.5784   83.2803   12.8720 C.ar    1  UNL1        0.0061
     12 C          64.0814   83.3959   11.4636 C.ar    1  UNL1        0.0014
     13 C          63.8882   82.2604   10.5027 C.ar    1  UNL1        0.0114
     14 C          63.1920   81.0094   10.9502 C.ar    1  UNL1        0.0577
     15 CL         62.9987   79.8739    9.9894 Cl      1  UNL1       -0.0822
     16 C          62.6890   80.8938   12.3587 C.ar    1  UNL1        0.0114
     17 C          62.8822   82.0293   13.3196 C.ar    1  UNL1        0.0014
     18 C          64.2053   91.3215   12.8587 C.2     1  UNL1        0.1926
     19 O          64.7324   92.7130   12.6694 O.2     1  UNL1       -0.2895
     20 C          60.0175   89.1682    9.1403 C.3     1  UNL1        0.0310
     21 C          61.0644   89.7065   10.0699 C.ar    1  UNL1       -0.0218
     22 C          62.2913   90.3678    9.5154 C.ar    1  UNL1       -0.0042
     23 C          63.3382   90.9062   10.4450 C.ar    1  UNL1        0.0026
     24 C          63.1583   90.7832   11.9291 C.ar    1  UNL1        0.0364
     25 C          61.9315   90.1218   12.4835 C.ar    1  UNL1        0.0026
     26 C          60.8846   89.5835   11.5539 C.ar    1  UNL1       -0.0042
     27 C          65.2688   91.1099   15.2196 C.3     1  UNL1        0.1350
     28 N          66.5745   91.8467   15.1731 N.ar    1  UNL1       -0.3057
     29 C          67.0635   92.8389   16.1863 C.ar    1  UNL1        0.0981
     30 C          68.4117   93.3262   15.7447 C.ar    1  UNL1        0.1193
     31 N          68.7559   92.6350   14.4586 N.ar    1  UNL1       -0.2223
     32 C          67.6205   91.7207   14.1054 C.ar    1  UNL1        0.1787
@<TRIPOS>BOND
     1    20    21    1
     2    21    22   ar
     3    22    23   ar
     4    23    24   ar
     5    24    18    1
     6    18    19    2
     7    18     1    1
     8     1    27    1
     9    27    28    1
    10    28    29   ar
    11    29    30   ar
    12    30    31   ar
    13    31    32   ar
    14     1     2    1
    15     2     3   am
    16     3     4    2
    17     3     6    1
    18     6     7   ar
    19     7     8   ar
    20     8     9   ar
    21     9    11    1
    22    11    12   ar
    23    12    13   ar
    24    13    14   ar
    25    14    15    1
    26    14    16   ar
    27    16    17   ar
    28     9    10   ar
    29    24    25   ar
    30    25    26   ar
    31    26    21   ar
    32    32    28   ar
    33    10     6   ar
    34    17    11   ar
    35     2     5    1
@<TRIPOS>MOLECULE
*****
 32 35 0 0 0
SMALL
GASTEIGER

@<TRIPOS>ATOM
      1 C          62.0727   87.1868   11.6524 C.3     1  UNL1        0.1569
      2 N          63.1213   88.2586   11.6938 N.am    1  UNL1       -0.2939
      3 C          62.8069   89.5922   12.3041 C.2     1  UNL1        0.2522
      4 O          61.4439   89.8541   12.8730 O.2     1  UNL1       -0.2696
      5 H          64.0159   88.0867   11.3204 H       1  UNL1        0.1502
      6 C          63.8556   90.6640   12.3456 C.ar    1  UNL1        0.0828
      7 C          64.7381   90.9894   13.5140 C.ar    1  UNL1        0.0115
      8 C          65.6337   92.1250   13.1164 C.ar    1  UNL1        0.0071
      9 C          65.3047   92.5016   11.7021 C.ar    1  UNL1        0.0296
     10 S          64.2057   91.5986   11.2257 S.2     1  UNL1       -0.0824
     11 C          65.9597   93.5900   10.9044 C.ar    1  UNL1        0.0061
     12 C          65.6828   95.0281   11.2290 C.ar    1  UNL1        0.0014
     13 C          66.3378   96.1164   10.4312 C.ar    1  UNL1        0.0114
     14 C          67.2696   95.7668    9.3090 C.ar    1  UNL1        0.0577
     15 CL         67.9246   96.8552    8.5112 Cl      1  UNL1       -0.0822
     16 C          67.5465   94.3287    8.9844 C.ar    1  UNL1        0.0114
     17 C          66.8915   93.2403    9.7821 C.ar    1  UNL1        0.0014
     18 C          61.0368   87.1926   10.5676 C.2     1  UNL1        0.1926
     19 O          59.7581   87.9539   10.7557 O.2     1  UNL1       -0.2895
     20 C          62.0077   84.1707    5.4759 C.3     1  UNL1        0.0310
     21 C          61.7650   84.9262    6.7488 C.ar    1  UNL1       -0.0218
     22 C          60.4034   85.4827    7.0426 C.ar    1  UNL1       -0.0042
     23 C          60.1607   86.2382    8.3156 C.ar    1  UNL1        0.0026
     24 C          61.2795   86.4371    9.2946 C.ar    1  UNL1        0.0364
     25 C          62.6411   85.8806    9.0008 C.ar    1  UNL1        0.0026
     26 C          62.8838   85.1251    7.7279 C.ar    1  UNL1       -0.0042
     27 C          62.0600   86.1092   12.6957 C.3     1  UNL1        0.1350
     28 N          62.9334   84.9002   12.5359 N.ar    1  UNL1       -0.3057
     29 C          62.7962   83.8472   11.4765 C.ar    1  UNL1        0.0981
     30 C          63.8753   82.8281   11.6933 C.ar    1  UNL1        0.1193
     31 N          64.6794   83.2514   12.8868 N.ar    1  UNL1       -0.2223
     32 C          64.0973   84.5319   13.4075 C.ar    1  UNL1        0.1787
@<TRIPOS>BOND
     1    20    21    1
     2    21    22   ar
     3    22    23   ar
     4    23    24   ar
     5    24    18    1
     6    18    19    2
     7    18     1    1
     8     1    27    1
     9    27    28    1
    10    28    29   ar
    11    29    30   ar
    12    30    31   ar
    13    31    32   ar
    14     1     2    1
    15     2     3   am
    16     3     4    2
    17     3     6    1
    18     6     7   ar
    19     7     8   ar
    20     8     9   ar
    21     9    11    1
    22    11    12   ar
    23    12    13   ar
    24    13    14   ar
    25    14    15    1
    26    14    16   ar
    27    16    17   ar
    28     9    10   ar
    29    24    25   ar
    30    25    26   ar
    31    26    21   ar
    32    32    28   ar
    33    10     6   ar
    34    17    11   ar
    35     2     5    1
@<TRIPOS>MOLECULE
*****
 32 35 0 0 0
SMALL
GASTEIGER

@<TRIPOS>ATOM
      1 C          61.7494   86.9292   11.2999 C.3     1  UNL1        0.1569
      2 N          62.8115   87.9738   11.4757 N.am    1  UNL1       -0.2939
      3 C          62.4481   89.3327   11.9965 C.2     1  UNL1        0.2522
      4 O          61.0225   89.6471   12.3415 O.2     1  UNL1       -0.2696
      5 H          63.7471   87.7675   11.2493 H       1  UNL1        0.1502
      6 C          63.5102   90.3773   12.1723 C.ar    1  UNL1        0.0828
      7 C          63.7756   91.5290   11.2487 C.ar    1  UNL1        0.0115
      8 C          64.9227   92.3170   11.8081 C.ar    1  UNL1        0.0071
      9 C          65.3663   91.6523   13.0776 C.ar    1  UNL1        0.0296
     10 S          64.4932   90.4534   13.3027 S.2     1  UNL1       -0.0824
     11 C          66.4863   92.1067   13.9660 C.ar    1  UNL1        0.0061
     12 C          67.9080   91.9803   13.5046 C.ar    1  UNL1        0.0014
     13 C          69.0279   92.4347   14.3930 C.ar    1  UNL1        0.0114
     14 C          68.7262   93.0154   15.7428 C.ar    1  UNL1        0.0577
     15 CL         69.8461   93.4698   16.6311 Cl      1  UNL1       -0.0822
     16 C          67.3045   93.1418   16.2041 C.ar    1  UNL1        0.0114
     17 C          66.1845   92.6874   15.3157 C.ar    1  UNL1        0.0014
     18 C          60.8265   86.9893   10.1190 C.2     1  UNL1        0.1926
     19 O          59.5703   87.8060   10.1898 O.2     1  UNL1       -0.2895
     20 C          62.1595   83.9633    5.1124 C.3     1  UNL1        0.0310
     21 C          61.8262   84.7198    6.3640 C.ar    1  UNL1       -0.0218
     22 C          60.4336   85.2326    6.5822 C.ar    1  UNL1       -0.0042
     23 C          60.1003   85.9891    7.8338 C.ar    1  UNL1        0.0026
     24 C          61.1597   86.2328    8.8674 C.ar    1  UNL1        0.0364
     25 C          62.5523   85.7201    8.6492 C.ar    1  UNL1        0.0026
     26 C          62.8856   84.9636    7.3976 C.ar    1  UNL1       -0.0042
     27 C          61.6103   85.8245   12.3050 C.3     1  UNL1        0.1350
     28 N          62.7388   84.8602   12.5206 N.ar    1  UNL1       -0.3057
     29 C          63.0976   83.7091   11.6283 C.ar    1  UNL1        0.0981
     30 C          64.2873   83.0152   12.2226 C.ar    1  UNL1        0.1193
     31 N          64.6637   83.7374   13.4823 N.ar    1  UNL1       -0.2223
     32 C          63.7067   84.8777   13.6664 C.ar    1  UNL1        0.1787
@<TRIPOS>BOND
     1    20    21    1
     2    21    22   ar
     3    22    23   ar
     4    23    24   ar
     5    24    18    1
     6    18    19    2
     7    18     1    1
     8     1    27    1
     9    27    28    1
    10    28    29   ar
    11    29    30   ar
    12    30    31   ar
    13    31    32   ar
    14     1     2    1
    15     2     3   am
    16     3     4    2
    17     3     6    1
    18     6     7   ar
    19     7     8   ar
    20     8     9   ar
    21     9    11    1
    22    11    12   ar
    23    12    13   ar
    24    13    14   ar
    25    14    15    1
    26    14    16   ar
    27    16    17   ar
    28     9    10   ar
    29    24    25   ar
    30    25    26   ar
    31    26    21   ar
    32    32    28   ar
    33    10     6   ar
    34    17    11   ar
    35     2     5    1
@<TRIPOS>MOLECULE
*****
 32 35 0 0 0
SMALL
GASTEIGER

@<TRIPOS>ATOM
      1 C          64.4102   90.7493   14.2456 C.3     1  UNL1        0.1569
      2 N          63.7802   90.2012   12.9995 N.am    1  UNL1       -0.2939
      3 C          62.3239   89.8418   12.9911 C.2     1  UNL1        0.2522
      4 O          61.4977   90.0305   14.2287 O.2     1  UNL1       -0.2696
      5 H          64.3225   90.0774   12.1872 H       1  UNL1        0.1502
      6 C          61.6939   89.2937   11.7450 C.ar    1  UNL1        0.0828
      7 C          60.4688   89.8312   11.0666 C.ar    1  UNL1        0.0115
      8 C          60.1961   88.9816    9.8609 C.ar    1  UNL1        0.0071
      9 C          61.2527   87.9189    9.7941 C.ar    1  UNL1        0.0296
     10 S          62.1784   88.1118   10.9586 S.2     1  UNL1       -0.0824
     11 C          61.3640   86.8508    8.7468 C.ar    1  UNL1        0.0061
     12 C          62.6497   86.0967    8.5784 C.ar    1  UNL1        0.0014
     13 C          62.7610   85.0287    7.5310 C.ar    1  UNL1        0.0114
     14 C          61.5867   84.7148    6.6522 C.ar    1  UNL1        0.0577
     15 CL         61.6980   83.6468    5.6048 Cl      1  UNL1       -0.0822
     16 C          60.3010   85.4689    6.8206 C.ar    1  UNL1        0.0114
     17 C          60.1897   86.5369    7.8679 C.ar    1  UNL1        0.0014
     18 C          65.4128   91.8611   14.1525 C.2     1  UNL1        0.1926
     19 O          65.6747   92.7364   15.3421 O.2     1  UNL1       -0.2895
     20 C          68.3752   92.8075    9.0214 C.3     1  UNL1        0.0310
     21 C          67.6346   92.5709   10.3042 C.ar    1  UNL1       -0.0218
     22 C          66.1843   92.9384   10.4116 C.ar    1  UNL1       -0.0042
     23 C          65.4437   92.7018   11.6944 C.ar    1  UNL1        0.0026
     24 C          66.1534   92.0977   12.8697 C.ar    1  UNL1        0.0364
     25 C          67.6037   91.7302   12.7622 C.ar    1  UNL1        0.0026
     26 C          68.3443   91.9668   11.4795 C.ar    1  UNL1       -0.0042
     27 C          64.0377   90.1855   15.5848 C.3     1  UNL1        0.1350
     28 N          63.8703   88.7047   15.7549 N.ar    1  UNL1       -0.3057
     29 C          64.4489   87.6441   14.8658 C.ar    1  UNL1        0.0981
     30 C          64.0312   86.3083   15.4054 C.ar    1  UNL1        0.1193
     31 N          63.1943   86.5434   16.6279 N.ar    1  UNL1       -0.2223
     32 C          63.0949   88.0244   16.8439 C.ar    1  UNL1        0.1787
@<TRIPOS>BOND
     1    20    21    1
     2    21    22   ar
     3    22    23   ar
     4    23    24   ar
     5    24    18    1
     6    18    19    2
     7    18     1    1
     8     1    27    1
     9    27    28    1
    10    28    29   ar
    11    29    30   ar
    12    30    31   ar
    13    31    32   ar
    14     1     2    1
    15     2     3   am
    16     3     4    2
    17     3     6    1
    18     6     7   ar
    19     7     8   ar
    20     8     9   ar
    21     9    11    1
    22    11    12   ar
    23    12    13   ar
    24    13    14   ar
    25    14    15    1
    26    14    16   ar
    27    16    17   ar
    28     9    10   ar
    29    24    25   ar
    30    25    26   ar
    31    26    21   ar
    32    32    28   ar
    33    10     6   ar
    34    17    11   ar
    35     2     5    1
@<TRIPOS>MOLECULE
*****
 32 35 0 0 0
SMALL
GASTEIGER

@<TRIPOS>ATOM
      1 C          61.7836   87.2224   11.0110 C.3     1  UNL1        0.1569
      2 N          62.6034   87.8616   12.0924 N.am    1  UNL1       -0.2939
      3 C          62.4943   89.3364   12.3438 C.2     1  UNL1        0.2522
      4 O          61.5653   90.1719   11.5138 O.2     1  UNL1       -0.2696
      5 H          63.2131   87.3132   12.6372 H       1  UNL1        0.1502
      6 C          63.3141   89.9756   13.4251 C.ar    1  UNL1        0.0828
      7 C          62.9428   90.0673   14.8755 C.ar    1  UNL1        0.0115
      8 C          64.0484   90.7837   15.5927 C.ar    1  UNL1        0.0071
      9 C          65.1031   91.1348   14.5855 C.ar    1  UNL1        0.0296
     10 S          64.6493   90.6354   13.2458 S.2     1  UNL1       -0.0824
     11 C          66.3863   91.8583   14.8683 C.ar    1  UNL1        0.0061
     12 C          67.5478   91.7202   13.9293 C.ar    1  UNL1        0.0014
     13 C          68.8310   92.4437   14.2121 C.ar    1  UNL1        0.0114
     14 C          68.9526   93.3053   15.4339 C.ar    1  UNL1        0.0577
     15 CL         70.2358   94.0289   15.7167 Cl      1  UNL1       -0.0822
     16 C          67.7911   93.4435   16.3729 C.ar    1  UNL1        0.0114
     17 C          66.5079   92.7200   16.0901 C.ar    1  UNL1        0.0014
     18 C          62.3561   86.0963   10.2023 C.2     1  UNL1        0.1926
     19 O          62.5664   86.2641    8.7266 O.2     1  UNL1       -0.2895
     20 C          63.8050   80.9209   12.8699 C.3     1  UNL1        0.0310
     21 C          63.4428   82.2148   12.2030 C.ar    1  UNL1       -0.0218
     22 C          62.6879   83.2647   12.9630 C.ar    1  UNL1       -0.0042
     23 C          62.3256   84.5585   12.2961 C.ar    1  UNL1        0.0026
     24 C          62.7183   84.8025   10.8692 C.ar    1  UNL1        0.0364
     25 C          63.4732   83.7526   10.1091 C.ar    1  UNL1        0.0026
     26 C          63.8355   82.4587   10.7760 C.ar    1  UNL1       -0.0042
     27 C          60.3912   87.7093   10.7385 C.3     1  UNL1        0.1350
     28 N          59.9295   87.9085    9.3253 N.ar    1  UNL1       -0.3057
     29 C          60.0951   89.1576    8.5115 C.ar    1  UNL1        0.0981
     30 C          59.4891   88.9147    7.1610 C.ar    1  UNL1        0.1193
     31 N          58.9490   87.5154    7.1403 N.ar    1  UNL1       -0.2223
     32 C          59.2212   86.8936    8.4779 C.ar    1  UNL1        0.1787
@<TRIPOS>BOND
     1    20    21    1
     2    21    22   ar
     3    22    23   ar
     4    23    24   ar
     5    24    18    1
     6    18    19    2
     7    18     1    1
     8     1    27    1
     9    27    28    1
    10    28    29   ar
    11    29    30   ar
    12    30    31   ar
    13    31    32   ar
    14     1     2    1
    15     2     3   am
    16     3     4    2
    17     3     6    1
    18     6     7   ar
    19     7     8   ar
    20     8     9   ar
    21     9    11    1
    22    11    12   ar
    23    12    13   ar
    24    13    14   ar
    25    14    15    1
    26    14    16   ar
    27    16    17   ar
    28     9    10   ar
    29    24    25   ar
    30    25    26   ar
    31    26    21   ar
    32    32    28   ar
    33    10     6   ar
    34    17    11   ar
    35     2     5    1
@<TRIPOS>MOLECULE
*****
 32 35 0 0 0
SMALL
GASTEIGER

@<TRIPOS>ATOM
      1 C          66.1898   92.6505   12.1631 C.3     1  UNL1        0.1569
      2 N          65.1064   91.8398   11.5158 N.am    1  UNL1       -0.2939
      3 C          63.9721   91.3088   12.3413 C.2     1  UNL1        0.2522
      4 O          63.9212   91.5885   13.8141 O.2     1  UNL1       -0.2696
      5 H          65.1398   91.6562   10.5491 H       1  UNL1        0.1502
      6 C          62.8887   90.4980   11.6939 C.ar    1  UNL1        0.0828
      7 C          61.4146   90.6530   11.9239 C.ar    1  UNL1        0.0115
      8 C          60.7041   89.6408   11.0751 C.ar    1  UNL1        0.0071
      9 C          61.7392   88.8601   10.3205 C.ar    1  UNL1        0.0296
     10 S          63.0894   89.3899   10.7030 S.2     1  UNL1       -0.0824
     11 C          61.4711   87.7453    9.3533 C.ar    1  UNL1        0.0061
     12 C          62.5013   86.6770    9.1360 C.ar    1  UNL1        0.0014
     13 C          62.2333   85.5622    8.1689 C.ar    1  UNL1        0.0114
     14 C          60.9350   85.5158    7.4190 C.ar    1  UNL1        0.0577
     15 CL         60.6669   84.4011    6.4518 Cl      1  UNL1       -0.0822
     16 C          59.9047   86.5842    7.6363 C.ar    1  UNL1        0.0114
     17 C          60.1728   87.6989    8.6035 C.ar    1  UNL1        0.0014
     18 C          66.1581   94.1478   12.0790 C.2     1  UNL1        0.1926
     19 O          66.1096   94.9686   13.3335 O.2     1  UNL1       -0.2895
     20 C          66.2250   96.8536    6.7241 C.3     1  UNL1        0.0310
     21 C          66.2083   96.1772    8.0628 C.ar    1  UNL1       -0.0218
     22 C          67.0912   94.9911    8.3149 C.ar    1  UNL1       -0.0042
     23 C          67.0745   94.3146    9.6536 C.ar    1  UNL1        0.0026
     24 C          66.1748   94.8243   10.7403 C.ar    1  UNL1        0.0364
     25 C          65.2919   96.0103   10.4882 C.ar    1  UNL1        0.0026
     26 C          65.3086   96.6868    9.1495 C.ar    1  UNL1       -0.0042
     27 C          67.3050   91.9639   12.8946 C.3     1  UNL1        0.1350
     28 N          67.5812   92.3028   14.3295 N.ar    1  UNL1       -0.3057
     29 C          68.9321   92.5516   14.9323 C.ar    1  UNL1        0.0981
     30 C          68.7409   92.8550   16.3888 C.ar    1  UNL1        0.1193
     31 N          67.2719   92.7936   16.6861 N.ar    1  UNL1       -0.2223
     32 C          66.5552   92.4524   15.4134 C.ar    1  UNL1        0.1787
@<TRIPOS>BOND
     1    20    21    1
     2    21    22   ar
     3    22    23   ar
     4    23    24   ar
     5    24    18    1
     6    18    19    2
     7    18     1    1
     8     1    27    1
     9    27    28    1
    10    28    29   ar
    11    29    30   ar
    12    30    31   ar
    13    31    32   ar
    14     1     2    1
    15     2     3   am
    16     3     4    2
    17     3     6    1
    18     6     7   ar
    19     7     8   ar
    20     8     9   ar
    21     9    11    1
    22    11    12   ar
    23    12    13   ar
    24    13    14   ar
    25    14    15    1
    26    14    16   ar
    27    16    17   ar
    28     9    10   ar
    29    24    25   ar
    30    25    26   ar
    31    26    21   ar
    32    32    28   ar
    33    10     6   ar
    34    17    11   ar
    35     2     5    1
@<TRIPOS>MOLECULE
*****
 32 35 0 0 0
SMALL
GASTEIGER

@<TRIPOS>ATOM
      1 C          60.1661   88.7288    8.9021 C.3     1  UNL1        0.1569
      2 N          60.3451   89.6519    7.7334 N.am    1  UNL1       -0.2939
      3 C          59.2408   89.8163    6.7316 C.2     1  UNL1        0.2522
      4 O          57.9577   89.0576    6.8985 O.2     1  UNL1       -0.2696
      5 H          61.1872   90.1499    7.6238 H       1  UNL1        0.1502
      6 C          59.4198   90.7395    5.5629 C.ar    1  UNL1        0.0828
      7 C          58.3475   91.5717    4.9244 C.ar    1  UNL1        0.0115
      8 C          58.9674   92.3390    3.7944 C.ar    1  UNL1        0.0071
      9 C          60.4229   91.9810    3.7344 C.ar    1  UNL1        0.0296
     10 S          60.7024   90.9924    4.8275 S.2     1  UNL1       -0.0824
     11 C          61.4231   92.5174    2.7537 C.ar    1  UNL1        0.0061
     12 C          62.8556   92.0787    2.8277 C.ar    1  UNL1        0.0014
     13 C          63.8558   92.6151    1.8470 C.ar    1  UNL1        0.0114
     14 C          63.4236   93.5902    0.7923 C.ar    1  UNL1        0.0577
     15 CL         64.4238   94.1265   -0.1884 Cl      1  UNL1       -0.0822
     16 C          61.9911   94.0289    0.7183 C.ar    1  UNL1        0.0114
     17 C          60.9908   93.4925    1.6990 C.ar    1  UNL1        0.0014
     18 C          59.9978   87.2556    8.6753 C.2     1  UNL1        0.1926
     19 O          58.7391   86.7322    8.0495 O.2     1  UNL1       -0.2895
     20 C          64.3589   83.4568   10.2719 C.3     1  UNL1        0.0310
     21 C          63.2686   84.4065    9.8727 C.ar    1  UNL1       -0.0218
     22 C          63.0729   84.7592    8.4280 C.ar    1  UNL1       -0.0042
     23 C          61.9826   85.7089    8.0289 C.ar    1  UNL1        0.0026
     24 C          61.0881   86.3059    9.0745 C.ar    1  UNL1        0.0364
     25 C          61.2838   85.9532   10.5192 C.ar    1  UNL1        0.0026
     26 C          62.3741   85.0035   10.9183 C.ar    1  UNL1       -0.0042
     27 C          60.1556   89.2789   10.2976 C.3     1  UNL1        0.1350
     28 N          61.4106   89.8500   10.8881 N.ar    1  UNL1       -0.3057
     29 C          61.8685   89.6917   12.3077 C.ar    1  UNL1        0.0981
     30 C          63.1689   90.4236   12.4597 C.ar    1  UNL1        0.1193
     31 N          63.5147   91.0343   11.1339 N.ar    1  UNL1       -0.2223
     32 C          62.4280   90.6798   10.1627 C.ar    1  UNL1        0.1787
@<TRIPOS>BOND
     1    20    21    1
     2    21    22   ar
     3    22    23   ar
     4    23    24   ar
     5    24    18    1
     6    18    19    2
     7    18     1    1
     8     1    27    1
     9    27    28    1
    10    28    29   ar
    11    29    30   ar
    12    30    31   ar
    13    31    32   ar
    14     1     2    1
    15     2     3   am
    16     3     4    2
    17     3     6    1
    18     6     7   ar
    19     7     8   ar
    20     8     9   ar
    21     9    11    1
    22    11    12   ar
    23    12    13   ar
    24    13    14   ar
    25    14    15    1
    26    14    16   ar
    27    16    17   ar
    28     9    10   ar
    29    24    25   ar
    30    25    26   ar
    31    26    21   ar
    32    32    28   ar
    33    10     6   ar
    34    17    11   ar
    35     2     5    1
@<TRIPOS>MOLECULE
*****
 32 35 0 0 0
SMALL
GASTEIGER

@<TRIPOS>ATOM
      1 C          62.8294   84.5609   15.3009 C.3     1  UNL1        0.1569
      2 N          62.3996   84.9357   13.9135 N.am    1  UNL1       -0.2939
      3 C          63.3308   84.7238   12.7569 C.2     1  UNL1        0.2522
      4 O          64.6919   84.1371   12.9876 O.2     1  UNL1       -0.2696
      5 H          61.5062   85.3208   13.7620 H       1  UNL1        0.1502
      6 C          62.9010   85.0986   11.3694 C.ar    1  UNL1        0.0828
      7 C          63.3653   84.4526   10.0978 C.ar    1  UNL1        0.0115
      8 C          62.6827   85.1399    8.9526 C.ar    1  UNL1        0.0071
      9 C          61.7964   86.2108    9.5164 C.ar    1  UNL1        0.0296
     10 S          61.9314   86.1852   11.0102 S.2     1  UNL1       -0.0824
     11 C          60.9278   87.1434    8.7254 C.ar    1  UNL1        0.0061
     12 C          60.9382   88.6132    9.0248 C.ar    1  UNL1        0.0014
     13 C          60.0696   89.5458    8.2338 C.ar    1  UNL1        0.0114
     14 C          59.1906   89.0087    7.1435 C.ar    1  UNL1        0.0577
     15 CL         58.3220   89.9413    6.3525 Cl      1  UNL1       -0.0822
     16 C          59.1802   87.5389    6.8441 C.ar    1  UNL1        0.0114
     17 C          60.0488   86.6063    7.6351 C.ar    1  UNL1        0.0014
     18 C          62.8980   85.6075   16.3732 C.2     1  UNL1        0.1926
     19 O          62.5403   85.2571   17.7871 O.2     1  UNL1       -0.2895
     20 C          64.6031   91.1955   15.0068 C.3     1  UNL1        0.0310
     21 C          64.1768   89.7985   15.3484 C.ar    1  UNL1       -0.0218
     22 C          63.2963   89.5527   16.5376 C.ar    1  UNL1       -0.0042
     23 C          62.8700   88.1557   16.8792 C.ar    1  UNL1        0.0026
     24 C          63.3243   87.0045   16.0316 C.ar    1  UNL1        0.0364
     25 C          64.2048   87.2503   14.8424 C.ar    1  UNL1        0.0026
     26 C          64.6310   88.6473   14.5008 C.ar    1  UNL1       -0.0042
     27 C          63.1905   83.1396   15.6159 C.3     1  UNL1        0.1350
     28 N          62.7784   82.0372   14.6859 N.ar    1  UNL1       -0.3057
     29 C          63.6962   81.2191   13.8267 C.ar    1  UNL1        0.0981
     30 C          62.8611   80.2357   13.0616 C.ar    1  UNL1        0.1193
     31 N          61.4270   80.4460   13.4480 N.ar    1  UNL1       -0.2223
     32 C          61.3759   81.5594   14.4519 C.ar    1  UNL1        0.1787
@<TRIPOS>BOND
     1    20    21    1
     2    21    22   ar
     3    22    23   ar
     4    23    24   ar
     5    24    18    1
     6    18    19    2
     7    18     1    1
     8     1    27    1
     9    27    28    1
    10    28    29   ar
    11    29    30   ar
    12    30    31   ar
    13    31    32   ar
    14     1     2    1
    15     2     3   am
    16     3     4    2
    17     3     6    1
    18     6     7   ar
    19     7     8   ar
    20     8     9   ar
    21     9    11    1
    22    11    12   ar
    23    12    13   ar
    24    13    14   ar
    25    14    15    1
    26    14    16   ar
    27    16    17   ar
    28     9    10   ar
    29    24    25   ar
    30    25    26   ar
    31    26    21   ar
    32    32    28   ar
    33    10     6   ar
    34    17    11   ar
    35     2     5    1
@<TRIPOS>MOLECULE
*****
 32 35 0 0 0
SMALL
GASTEIGER

@<TRIPOS>ATOM
      1 C          61.9773   86.5943    9.6501 C.3     1  UNL1        0.1569
      2 N          62.7885   87.7918   10.0477 N.am    1  UNL1       -0.2939
      3 C          62.3205   88.6775   11.1642 C.2     1  UNL1        0.2522
      4 O          61.0415   88.3657   11.8831 O.2     1  UNL1       -0.2696
      5 H          63.6279   87.9964    9.5759 H       1  UNL1        0.1502
      6 C          63.1317   89.8750   11.5619 C.ar    1  UNL1        0.0828
      7 C          63.0830   91.2273   10.9147 C.ar    1  UNL1        0.0115
      8 C          64.0551   92.1185   11.6294 C.ar    1  UNL1        0.0071
      9 C          64.7047   91.3169   12.7183 C.ar    1  UNL1        0.0296
     10 S          64.1339   89.9303   12.6766 S.2     1  UNL1       -0.0824
     11 C          65.7426   91.8145   13.6800 C.ar    1  UNL1        0.0061
     12 C          65.3855   92.0376   15.1197 C.ar    1  UNL1        0.0014
     13 C          66.4235   92.5352   16.0815 C.ar    1  UNL1        0.0114
     14 C          67.8186   92.8097   15.6035 C.ar    1  UNL1        0.0577
     15 CL         68.8566   93.3074   16.5652 Cl      1  UNL1       -0.0822
     16 C          68.1757   92.5867   14.1638 C.ar    1  UNL1        0.0114
     17 C          67.1377   92.0890   13.2021 C.ar    1  UNL1        0.0014
     18 C          62.6623   85.3048    9.3069 C.2     1  UNL1        0.1926
     19 O          63.0204   85.0018    7.8821 O.2     1  UNL1       -0.2895
     20 C          63.9701   81.3585   13.6332 C.3     1  UNL1        0.0310
     21 C          63.6432   82.3451   12.5516 C.ar    1  UNL1       -0.0218
     22 C          64.1817   82.1449   11.1660 C.ar    1  UNL1       -0.0042
     23 C          63.8547   83.1314   10.0845 C.ar    1  UNL1        0.0026
     24 C          62.9893   84.3182   10.3885 C.ar    1  UNL1        0.0364
     25 C          62.4508   84.5184   11.7740 C.ar    1  UNL1        0.0026
     26 C          62.7777   83.5319   12.8556 C.ar    1  UNL1       -0.0042
     27 C          60.4811   86.6864    9.5956 C.3     1  UNL1        0.1350
     28 N          59.8208   87.5771    8.5854 N.ar    1  UNL1       -0.3057
     29 C          60.1229   89.0288    8.3587 C.ar    1  UNL1        0.0981
     30 C          59.2313   89.5214    7.2577 C.ar    1  UNL1        0.1193
     31 N          58.3781   88.3742    6.8039 N.ar    1  UNL1       -0.2223
     32 C          58.7424   87.1725    7.6245 C.ar    1  UNL1        0.1787
@<TRIPOS>BOND
     1    20    21    1
     2    21    22   ar
     3    22    23   ar
     4    23    24   ar
     5    24    18    1
     6    18    19    2
     7    18     1    1
     8     1    27    1
     9    27    28    1
    10    28    29   ar
    11    29    30   ar
    12    30    31   ar
    13    31    32   ar
    14     1     2    1
    15     2     3   am
    16     3     4    2
    17     3     6    1
    18     6     7   ar
    19     7     8   ar
    20     8     9   ar
    21     9    11    1
    22    11    12   ar
    23    12    13   ar
    24    13    14   ar
    25    14    15    1
    26    14    16   ar
    27    16    17   ar
    28     9    10   ar
    29    24    25   ar
    30    25    26   ar
    31    26    21   ar
    32    32    28   ar
    33    10     6   ar
    34    17    11   ar
    35     2     5    1
