@<TRIPOS>MOLECULE
*****
 30 32 0 0 0
SMALL
GASTEIGER

@<TRIPOS>ATOM
      1 C          61.3939   88.9969   11.4136 C.ar    1  UNL1        0.1366
      2 C          60.3655   89.5267   10.4588 C.ar    1  UNL1        0.0552
      3 C          60.1559   88.8555    9.1338 C.ar    1  UNL1        0.1047
      4 N          60.9748   87.6544    8.7637 N.ar    1  UNL1       -0.2119
      5 C          62.0031   87.1246    9.7186 C.ar    1  UNL1        0.2218
      6 N          62.2127   87.7958   11.0435 N.ar    1  UNL1       -0.1985
      7 N          61.6035   89.6681   12.7386 N.pl3   1  UNL1       -0.2983
      8 H          60.8716   89.6984   13.3963 H       1  UNL1        0.1536
      9 C          63.0606   91.2569   10.6523 C.3     1  UNL1        0.0323
     10 C          63.6568   91.0876   12.0183 C.ar    1  UNL1       -0.0087
     11 C          64.9816   91.7127   12.3412 C.ar    1  UNL1       -0.0030
     12 C          65.5778   91.5435   13.7071 C.ar    1  UNL1        0.0001
     13 C          64.8492   90.7491   14.7503 C.ar    1  UNL1       -0.0030
     14 C          63.5245   90.1240   14.4274 C.ar    1  UNL1       -0.0087
     15 C          62.7959   89.3295   15.4705 C.3     1  UNL1        0.0323
     16 C          62.9283   90.2933   13.0614 C.ar    1  UNL1        0.0413
     17 C          66.9026   92.1686   14.0300 C.2     1  UNL1        0.0109
     18 C          67.0933   92.8928   15.3296 C.2     1  UNL1        0.0780
     19 C          68.4180   93.5180   15.6525 C.1     1  UNL1        0.1011
     20 N          69.7428   94.1432   15.9753 N.1     1  UNL1       -0.1908
     21 N          62.8220   85.9235    9.3485 N.pl3   1  UNL1       -0.2825
     22 H          63.2377   85.8665    8.4578 H       1  UNL1        0.1551
     23 C          63.0075   84.8092   10.3354 C.ar    1  UNL1        0.0505
     24 C          63.7923   83.5900    9.9512 C.ar    1  UNL1        0.0154
     25 C          63.9778   82.4757   10.9381 C.ar    1  UNL1        0.0115
     26 C          63.3785   82.5807   12.3092 C.ar    1  UNL1        0.0685
     27 C          62.5937   83.7999   12.6933 C.ar    1  UNL1        0.0115
     28 C          62.4082   84.9141   11.7064 C.ar    1  UNL1        0.0154
     29 C          63.5640   81.4664   13.2961 C.1     1  UNL1        0.1004
     30 N          63.7495   80.3521   14.2830 N.1     1  UNL1       -0.1908
@<TRIPOS>BOND
     1     9    10    1
     2    10    11   ar
     3    11    12   ar
     4    12    17    1
     5    17    18    2
     6    18    19    1
     7    19    20    3
     8    12    13   ar
     9    13    14   ar
    10    14    15    1
    11    14    16   ar
    12    16     7    1
    13     7     1    1
    14     1     2   ar
    15     2     3   ar
    16     3     4   ar
    17     4     5   ar
    18     5    21    1
    19    21    23    1
    20    23    24   ar
    21    24    25   ar
    22    25    26   ar
    23    26    29    1
    24    29    30    3
    25    26    27   ar
    26    27    28   ar
    27     5     6   ar
    28    16    10   ar
    29     6     1   ar
    30    28    23   ar
    31     7     8    1
    32    21    22    1
@<TRIPOS>MOLECULE
*****
 30 32 0 0 0
SMALL
GASTEIGER

@<TRIPOS>ATOM
      1 C          63.2638   84.2760   11.3466 C.ar    1  UNL1        0.1366
      2 C          62.6053   82.9344   11.2173 C.ar    1  UNL1        0.0552
      3 C          62.3189   82.1182   12.4428 C.ar    1  UNL1        0.1047
      4 N          62.6911   82.6436   13.7976 N.ar    1  UNL1       -0.2119
      5 C          63.3496   83.9851   13.9269 C.ar    1  UNL1        0.2218
      6 N          63.6359   84.8013   12.7014 N.ar    1  UNL1       -0.1985
      7 N          63.5501   85.0922   10.1211 N.pl3   1  UNL1       -0.2983
      8 H          64.4529   85.0908    9.7286 H       1  UNL1        0.1536
      9 C          62.4695   84.3369    7.4263 C.3     1  UNL1        0.0323
     10 C          61.9204   85.5329    8.1462 C.ar    1  UNL1       -0.0087
     11 C          60.8311   86.3512    7.5188 C.ar    1  UNL1       -0.0030
     12 C          60.2820   87.5471    8.2388 C.ar    1  UNL1        0.0001
     13 C          60.8223   87.9247    9.5861 C.ar    1  UNL1       -0.0030
     14 C          61.9116   87.1064   10.2136 C.ar    1  UNL1       -0.0087
     15 C          62.4520   87.4840   11.5610 C.3     1  UNL1        0.0323
     16 C          62.4607   85.9105    9.4936 C.ar    1  UNL1        0.0413
     17 C          59.1926   88.3654    7.6113 C.2     1  UNL1        0.0109
     18 C          59.5338   89.4170    6.5975 C.2     1  UNL1        0.0780
     19 C          58.4445   90.2353    5.9700 C.1     1  UNL1        0.1011
     20 N          57.3552   91.0537    5.3425 N.1     1  UNL1       -0.1908
     21 N          63.7218   84.5105   15.2818 N.pl3   1  UNL1       -0.2825
     22 H          63.9908   83.8870   15.9946 H       1  UNL1        0.1551
     23 C          63.6841   85.9857   15.5504 C.ar    1  UNL1        0.0505
     24 C          64.2707   86.9442   14.5568 C.ar    1  UNL1        0.0154
     25 C          64.2330   88.4195   14.8254 C.ar    1  UNL1        0.0115
     26 C          63.6086   88.9363   16.0877 C.ar    1  UNL1        0.0685
     27 C          63.0220   87.9778   17.0812 C.ar    1  UNL1        0.0115
     28 C          63.0597   86.5025   16.8126 C.ar    1  UNL1        0.0154
     29 C          63.5709   90.4115   16.3563 C.1     1  UNL1        0.1004
     30 N          63.5332   91.8868   16.6250 N.1     1  UNL1       -0.1908
@<TRIPOS>BOND
     1     9    10    1
     2    10    11   ar
     3    11    12   ar
     4    12    17    1
     5    17    18    2
     6    18    19    1
     7    19    20    3
     8    12    13   ar
     9    13    14   ar
    10    14    15    1
    11    14    16   ar
    12    16     7    1
    13     7     1    1
    14     1     2   ar
    15     2     3   ar
    16     3     4   ar
    17     4     5   ar
    18     5    21    1
    19    21    23    1
    20    23    24   ar
    21    24    25   ar
    22    25    26   ar
    23    26    29    1
    24    29    30    3
    25    26    27   ar
    26    27    28   ar
    27     5     6   ar
    28    16    10   ar
    29     6     1   ar
    30    28    23   ar
    31     7     8    1
    32    21    22    1
@<TRIPOS>MOLECULE
*****
 30 32 0 0 0
SMALL
GASTEIGER

@<TRIPOS>ATOM
      1 C          63.7355   88.5626   13.8968 C.ar    1  UNL1        0.1366
      2 C          64.5491   87.8232   14.9173 C.ar    1  UNL1        0.0552
      3 C          64.6916   86.3327   14.8262 C.ar    1  UNL1        0.1047
      4 N          64.0205   85.5817   13.7146 N.ar    1  UNL1       -0.2119
      5 C          63.2070   86.3211   12.6941 C.ar    1  UNL1        0.2218
      6 N          63.0645   87.8115   12.7852 N.ar    1  UNL1       -0.1985
      7 N          63.5929   90.0530   13.9878 N.pl3   1  UNL1       -0.2983
      8 H          63.0158   90.4510   14.6790 H       1  UNL1        0.1536
      9 C          62.4365   90.6117   11.2766 C.3     1  UNL1        0.0323
     10 C          63.7516   91.2164   11.6702 C.ar    1  UNL1       -0.0087
     11 C          64.4884   92.1004   10.7082 C.ar    1  UNL1       -0.0030
     12 C          65.8035   92.7051   11.1018 C.ar    1  UNL1        0.0001
     13 C          66.3817   92.4258   12.4573 C.ar    1  UNL1       -0.0030
     14 C          65.6449   91.5418   13.4193 C.ar    1  UNL1       -0.0087
     15 C          66.2231   91.2624   14.7750 C.3     1  UNL1        0.0323
     16 C          64.3298   90.9371   13.0258 C.ar    1  UNL1        0.0413
     17 C          66.5404   93.5892   10.1397 C.2     1  UNL1        0.0109
     18 C          66.1968   95.0463   10.0462 C.2     1  UNL1        0.0780
     19 C          66.9336   95.9304    9.0841 C.1     1  UNL1        0.1011
     20 N          67.6704   96.8145    8.1221 N.1     1  UNL1       -0.1908
     21 N          62.5359   85.5700   11.5825 N.pl3   1  UNL1       -0.2825
     22 H          62.6101   84.5894   11.5360 H       1  UNL1        0.1551
     23 C          61.7519   86.3131   10.5417 C.ar    1  UNL1        0.0505
     24 C          60.7456   87.3455   10.9560 C.ar    1  UNL1        0.0154
     25 C          59.9615   88.0885    9.9153 C.ar    1  UNL1        0.0115
     26 C          60.1838   87.7992    8.4603 C.ar    1  UNL1        0.0685
     27 C          61.1900   86.7668    8.0461 C.ar    1  UNL1        0.0115
     28 C          61.9741   86.0238    9.0868 C.ar    1  UNL1        0.0154
     29 C          59.3997   88.5422    7.4195 C.1     1  UNL1        0.1004
     30 N          58.6157   89.2853    6.3788 N.1     1  UNL1       -0.1908
@<TRIPOS>BOND
     1     9    10    1
     2    10    11   ar
     3    11    12   ar
     4    12    17    1
     5    17    18    2
     6    18    19    1
     7    19    20    3
     8    12    13   ar
     9    13    14   ar
    10    14    15    1
    11    14    16   ar
    12    16     7    1
    13     7     1    1
    14     1     2   ar
    15     2     3   ar
    16     3     4   ar
    17     4     5   ar
    18     5    21    1
    19    21    23    1
    20    23    24   ar
    21    24    25   ar
    22    25    26   ar
    23    26    29    1
    24    29    30    3
    25    26    27   ar
    26    27    28   ar
    27     5     6   ar
    28    16    10   ar
    29     6     1   ar
    30    28    23   ar
    31     7     8    1
    32    21    22    1
@<TRIPOS>MOLECULE
*****
 30 32 0 0 0
SMALL
GASTEIGER

@<TRIPOS>ATOM
      1 C          63.7548   87.6369   15.6920 C.ar    1  UNL1        0.1366
      2 C          63.3660   88.6998   16.6765 C.ar    1  UNL1        0.0552
      3 C          63.0523   90.0865   16.1981 C.ar    1  UNL1        0.1047
      4 N          63.1273   90.4101   14.7353 N.ar    1  UNL1       -0.2119
      5 C          63.5161   89.3472   13.7510 C.ar    1  UNL1        0.2218
      6 N          63.8298   87.9606   14.2293 N.ar    1  UNL1       -0.1985
      7 N          64.0685   86.2502   16.1704 N.pl3   1  UNL1       -0.2983
      8 H          64.4608   86.1144   17.0630 H       1  UNL1        0.1536
      9 C          61.3008   85.0987   16.0510 C.3     1  UNL1        0.0323
     10 C          62.4006   84.4947   15.2289 C.ar    1  UNL1       -0.0087
     11 C          62.1165   83.3150   14.3472 C.ar    1  UNL1       -0.0030
     12 C          63.2163   82.7110   13.5251 C.ar    1  UNL1        0.0001
     13 C          64.6000   83.2868   13.5847 C.ar    1  UNL1       -0.0030
     14 C          64.8841   84.4665   14.4665 C.ar    1  UNL1       -0.0087
     15 C          66.2679   85.0423   14.5262 C.3     1  UNL1        0.0323
     16 C          63.7844   85.0704   15.2886 C.ar    1  UNL1        0.0413
     17 C          62.9321   81.5312   12.6433 C.2     1  UNL1        0.0109
     18 C          63.2738   81.5863   11.1838 C.2     1  UNL1        0.0780
     19 C          62.9897   80.4066   10.3020 C.1     1  UNL1        0.1011
     20 N          62.7057   79.2268    9.4201 N.1     1  UNL1       -0.1908
     21 N          63.5911   89.6709   12.2882 N.pl3   1  UNL1       -0.2825
     22 H          64.2868   90.2823   11.9544 H       1  UNL1        0.1551
     23 C          62.6062   89.0629   11.3340 C.ar    1  UNL1        0.0505
     24 C          61.8204   89.9415   10.4063 C.ar    1  UNL1        0.0154
     25 C          60.8355   89.3335    9.4522 C.ar    1  UNL1        0.0115
     26 C          60.6365   87.8470    9.4258 C.ar    1  UNL1        0.0685
     27 C          61.4223   86.9685   10.3535 C.ar    1  UNL1        0.0115
     28 C          62.4072   87.5764   11.3076 C.ar    1  UNL1        0.0154
     29 C          59.6516   87.2390    8.4716 C.1     1  UNL1        0.1004
     30 N          58.6667   86.6310    7.5175 N.1     1  UNL1       -0.1908
@<TRIPOS>BOND
     1     9    10    1
     2    10    11   ar
     3    11    12   ar
     4    12    17    1
     5    17    18    2
     6    18    19    1
     7    19    20    3
     8    12    13   ar
     9    13    14   ar
    10    14    15    1
    11    14    16   ar
    12    16     7    1
    13     7     1    1
    14     1     2   ar
    15     2     3   ar
    16     3     4   ar
    17     4     5   ar
    18     5    21    1
    19    21    23    1
    20    23    24   ar
    21    24    25   ar
    22    25    26   ar
    23    26    29    1
    24    29    30    3
    25    26    27   ar
    26    27    28   ar
    27     5     6   ar
    28    16    10   ar
    29     6     1   ar
    30    28    23   ar
    31     7     8    1
    32    21    22    1
@<TRIPOS>MOLECULE
*****
 30 32 0 0 0
SMALL
GASTEIGER

@<TRIPOS>ATOM
      1 C          63.7339   87.3859   15.9676 C.ar    1  UNL1        0.1366
      2 C          63.2418   88.3027   17.0481 C.ar    1  UNL1        0.0552
      3 C          62.9870   89.7496   16.7455 C.ar    1  UNL1        0.1047
      4 N          63.2243   90.2797   15.3625 N.ar    1  UNL1       -0.2119
      5 C          63.7165   89.3629   14.2821 C.ar    1  UNL1        0.2218
      6 N          63.9713   87.9160   14.5847 N.ar    1  UNL1       -0.1985
      7 N          63.9887   85.9390   16.2702 N.pl3   1  UNL1       -0.2983
      8 H          64.2371   85.6631   17.1821 H       1  UNL1        0.1536
      9 C          66.3918   85.1816   14.6418 C.3     1  UNL1        0.0323
     10 C          65.0666   84.5338   14.3693 C.ar    1  UNL1       -0.0087
     11 C          64.9429   83.5072   13.2826 C.ar    1  UNL1       -0.0030
     12 C          63.6178   82.8594   13.0101 C.ar    1  UNL1        0.0001
     13 C          62.4163   83.2381   13.8243 C.ar    1  UNL1       -0.0030
     14 C          62.5399   84.2646   14.9110 C.ar    1  UNL1       -0.0087
     15 C          61.3384   84.6434   15.7252 C.3     1  UNL1        0.0323
     16 C          63.8651   84.9125   15.1835 C.ar    1  UNL1        0.0413
     17 C          63.4941   81.8329   11.9233 C.2     1  UNL1        0.0109
     18 C          62.8593   80.5054   12.2144 C.2     1  UNL1        0.0780
     19 C          62.7356   79.4788   11.1277 C.1     1  UNL1        0.1011
     20 N          62.6120   78.4522   10.0410 N.1     1  UNL1       -0.1908
     21 N          63.9539   89.8930   12.8991 N.pl3   1  UNL1       -0.2825
     22 H          64.7463   90.4469   12.7134 H       1  UNL1        0.1551
     23 C          62.9838   89.5792   11.7989 C.ar    1  UNL1        0.0505
     24 C          62.6724   88.1520   11.4579 C.ar    1  UNL1        0.0154
     25 C          61.7023   87.8382   10.3577 C.ar    1  UNL1        0.0115
     26 C          61.0436   88.9516    9.5985 C.ar    1  UNL1        0.0685
     27 C          61.3549   90.3787    9.9394 C.ar    1  UNL1        0.0115
     28 C          62.3250   90.6925   11.0396 C.ar    1  UNL1        0.0154
     29 C          60.0735   88.6378    8.4983 C.1     1  UNL1        0.1004
     30 N          59.1034   88.3239    7.3981 N.1     1  UNL1       -0.1908
@<TRIPOS>BOND
     1     9    10    1
     2    10    11   ar
     3    11    12   ar
     4    12    17    1
     5    17    18    2
     6    18    19    1
     7    19    20    3
     8    12    13   ar
     9    13    14   ar
    10    14    15    1
    11    14    16   ar
    12    16     7    1
    13     7     1    1
    14     1     2   ar
    15     2     3   ar
    16     3     4   ar
    17     4     5   ar
    18     5    21    1
    19    21    23    1
    20    23    24   ar
    21    24    25   ar
    22    25    26   ar
    23    26    29    1
    24    29    30    3
    25    26    27   ar
    26    27    28   ar
    27     5     6   ar
    28    16    10   ar
    29     6     1   ar
    30    28    23   ar
    31     7     8    1
    32    21    22    1
@<TRIPOS>MOLECULE
*****
 30 32 0 0 0
SMALL
GASTEIGER

@<TRIPOS>ATOM
      1 C          63.8702   87.1902   13.3911 C.ar    1  UNL1        0.1366
      2 C          64.1981   88.4386   14.1554 C.ar    1  UNL1        0.0552
      3 C          63.4678   89.7143   13.8570 C.ar    1  UNL1        0.1047
      4 N          62.4094   89.7417   12.7943 N.ar    1  UNL1       -0.2119
      5 C          62.0815   88.4934   12.0300 C.ar    1  UNL1        0.2218
      6 N          62.8119   87.2176   12.3284 N.ar    1  UNL1       -0.1985
      7 N          64.6005   85.9145   13.6894 N.pl3   1  UNL1       -0.2983
      8 H          65.5788   85.9215   13.7997 H       1  UNL1        0.1536
      9 C          64.4855   83.9996   11.3829 C.3     1  UNL1        0.0323
     10 C          63.7828   83.6705   12.6666 C.ar    1  UNL1       -0.0087
     11 C          63.0226   82.3840   12.7971 C.ar    1  UNL1       -0.0030
     12 C          62.3200   82.0550   14.0809 C.ar    1  UNL1        0.0001
     13 C          62.3775   83.0124   15.2341 C.ar    1  UNL1       -0.0030
     14 C          63.1377   84.2988   15.1036 C.ar    1  UNL1       -0.0087
     15 C          63.1952   85.2563   16.2569 C.3     1  UNL1        0.0323
     16 C          63.8403   84.6279   13.8199 C.ar    1  UNL1        0.0413
     17 C          61.5598   80.7684   14.2113 C.2     1  UNL1        0.0109
     18 C          60.0598   80.7800   14.2084 C.2     1  UNL1        0.0780
     19 C          59.2996   79.4935   14.3389 C.1     1  UNL1        0.1011
     20 N          58.5394   78.2070   14.4694 N.1     1  UNL1       -0.1908
     21 N          61.0231   88.5207   10.9674 N.pl3   1  UNL1       -0.2825
     22 H          60.2839   89.1684   11.0254 H       1  UNL1        0.1551
     23 C          61.0911   87.5613    9.8163 C.ar    1  UNL1        0.0505
     24 C          59.8846   87.3388    8.9532 C.ar    1  UNL1        0.0154
     25 C          59.9526   86.3794    7.8021 C.ar    1  UNL1        0.0115
     26 C          61.2271   85.6425    7.5142 C.ar    1  UNL1        0.0685
     27 C          62.4335   85.8651    8.3773 C.ar    1  UNL1        0.0115
     28 C          62.3655   86.8245    9.5284 C.ar    1  UNL1        0.0154
     29 C          61.2951   84.6831    6.3632 C.1     1  UNL1        0.1004
     30 N          61.3631   83.7237    5.2121 N.1     1  UNL1       -0.1908
@<TRIPOS>BOND
     1     9    10    1
     2    10    11   ar
     3    11    12   ar
     4    12    17    1
     5    17    18    2
     6    18    19    1
     7    19    20    3
     8    12    13   ar
     9    13    14   ar
    10    14    15    1
    11    14    16   ar
    12    16     7    1
    13     7     1    1
    14     1     2   ar
    15     2     3   ar
    16     3     4   ar
    17     4     5   ar
    18     5    21    1
    19    21    23    1
    20    23    24   ar
    21    24    25   ar
    22    25    26   ar
    23    26    29    1
    24    29    30    3
    25    26    27   ar
    26    27    28   ar
    27     5     6   ar
    28    16    10   ar
    29     6     1   ar
    30    28    23   ar
    31     7     8    1
    32    21    22    1
@<TRIPOS>MOLECULE
*****
 30 32 0 0 0
SMALL
GASTEIGER

@<TRIPOS>ATOM
      1 C          63.8023   87.4372   15.7429 C.ar    1  UNL1        0.1366
      2 C          63.3149   88.3747   16.8077 C.ar    1  UNL1        0.0552
      3 C          62.8743   89.7611   16.4420 C.ar    1  UNL1        0.1047
      4 N          62.9210   90.2100   15.0114 N.ar    1  UNL1       -0.2119
      5 C          63.4084   89.2726   13.9467 C.ar    1  UNL1        0.2218
      6 N          63.8490   87.8862   14.3125 N.ar    1  UNL1       -0.1985
      7 N          64.2430   86.0509   16.1087 N.pl3   1  UNL1       -0.2983
      8 H          64.7593   85.8999   16.9332 H       1  UNL1        0.1536
      9 C          66.3261   84.8779   14.2962 C.3     1  UNL1        0.0323
     10 C          64.9386   84.3080   14.3118 C.ar    1  UNL1       -0.0087
     11 C          64.5927   83.1517   13.4212 C.ar    1  UNL1       -0.0030
     12 C          63.2053   82.5818   13.4368 C.ar    1  UNL1        0.0001
     13 C          62.1638   83.1683   14.3430 C.ar    1  UNL1       -0.0030
     14 C          62.5097   84.3246   15.2336 C.ar    1  UNL1       -0.0087
     15 C          61.4681   84.9111   16.1399 C.3     1  UNL1        0.0323
     16 C          63.8971   84.8945   15.2180 C.ar    1  UNL1        0.0413
     17 C          62.8594   81.4255   12.5461 C.2     1  UNL1        0.0109
     18 C          63.3572   81.3933   11.1315 C.2     1  UNL1        0.0780
     19 C          63.0113   80.2370   10.2408 C.1     1  UNL1        0.1011
     20 N          62.6654   79.0807    9.3501 N.1     1  UNL1       -0.1908
     21 N          63.4551   89.7215   12.5162 N.pl3   1  UNL1       -0.2825
     22 H          63.0020   89.1936   11.8196 H       1  UNL1        0.1551
     23 C          64.1921   90.9747   12.1471 C.ar    1  UNL1        0.0505
     24 C          64.0334   91.5620   10.7760 C.ar    1  UNL1        0.0154
     25 C          64.7704   92.8152   10.4069 C.ar    1  UNL1        0.0115
     26 C          65.6662   93.4812   11.4090 C.ar    1  UNL1        0.0685
     27 C          65.8249   92.8939   12.7801 C.ar    1  UNL1        0.0115
     28 C          65.0879   91.6407   13.1491 C.ar    1  UNL1        0.0154
     29 C          66.4032   94.7344   11.0400 C.1     1  UNL1        0.1004
     30 N          67.1403   95.9876   10.6709 N.1     1  UNL1       -0.1908
@<TRIPOS>BOND
     1     9    10    1
     2    10    11   ar
     3    11    12   ar
     4    12    17    1
     5    17    18    2
     6    18    19    1
     7    19    20    3
     8    12    13   ar
     9    13    14   ar
    10    14    15    1
    11    14    16   ar
    12    16     7    1
    13     7     1    1
    14     1     2   ar
    15     2     3   ar
    16     3     4   ar
    17     4     5   ar
    18     5    21    1
    19    21    23    1
    20    23    24   ar
    21    24    25   ar
    22    25    26   ar
    23    26    29    1
    24    29    30    3
    25    26    27   ar
    26    27    28   ar
    27     5     6   ar
    28    16    10   ar
    29     6     1   ar
    30    28    23   ar
    31     7     8    1
    32    21    22    1
@<TRIPOS>MOLECULE
*****
 30 32 0 0 0
SMALL
GASTEIGER

@<TRIPOS>ATOM
      1 C          62.8851   86.7170   12.4086 C.ar    1  UNL1        0.1366
      2 C          63.6884   86.0083   13.4587 C.ar    1  UNL1        0.0552
      3 C          64.4068   86.7973   14.5129 C.ar    1  UNL1        0.1047
      4 N          64.3219   88.2949   14.5171 N.ar    1  UNL1       -0.2119
      5 C          63.5186   89.0035   13.4670 C.ar    1  UNL1        0.2218
      6 N          62.8002   88.2145   12.4128 N.ar    1  UNL1       -0.1985
      7 N          62.1667   85.9280   11.3543 N.pl3   1  UNL1       -0.2983
      8 H          62.1935   84.9440   11.3721 H       1  UNL1        0.1536
      9 C          60.0443   87.9225   12.0736 C.3     1  UNL1        0.0323
     10 C          60.3463   87.6355   10.6326 C.ar    1  UNL1       -0.0087
     11 C          59.5872   88.3457    9.5513 C.ar    1  UNL1       -0.0030
     12 C          59.8893   88.0587    8.1104 C.ar    1  UNL1        0.0001
     13 C          60.9504   87.0615    7.7507 C.ar    1  UNL1       -0.0030
     14 C          61.7096   86.3513    8.8320 C.ar    1  UNL1       -0.0087
     15 C          62.7708   85.3540    8.4724 C.3     1  UNL1        0.0323
     16 C          61.4075   86.6383   10.2730 C.ar    1  UNL1        0.0413
     17 C          59.1301   88.7690    7.0290 C.2     1  UNL1        0.0109
     18 C          59.5619   90.1342    6.5822 C.2     1  UNL1        0.0780
     19 C          58.8028   90.8445    5.5010 C.1     1  UNL1        0.1011
     20 N          58.0436   91.5548    4.4196 N.1     1  UNL1       -0.1908
     21 N          63.4337   90.5011   13.4712 N.pl3   1  UNL1       -0.2825
     22 H          62.7428   90.9535   14.0071 H       1  UNL1        0.1551
     23 C          64.4016   91.3094   12.6589 C.ar    1  UNL1        0.0505
     24 C          65.6878   91.7777   13.2725 C.ar    1  UNL1        0.0154
     25 C          66.6557   92.5860   12.4602 C.ar    1  UNL1        0.0115
     26 C          66.3374   92.9260   11.0343 C.ar    1  UNL1        0.0685
     27 C          65.0512   92.4577   10.4207 C.ar    1  UNL1        0.0115
     28 C          64.0834   91.6494   11.2330 C.ar    1  UNL1        0.0154
     29 C          67.3053   93.7343   10.2219 C.1     1  UNL1        0.1004
     30 N          68.2732   94.5426    9.4096 N.1     1  UNL1       -0.1908
@<TRIPOS>BOND
     1     9    10    1
     2    10    11   ar
     3    11    12   ar
     4    12    17    1
     5    17    18    2
     6    18    19    1
     7    19    20    3
     8    12    13   ar
     9    13    14   ar
    10    14    15    1
    11    14    16   ar
    12    16     7    1
    13     7     1    1
    14     1     2   ar
    15     2     3   ar
    16     3     4   ar
    17     4     5   ar
    18     5    21    1
    19    21    23    1
    20    23    24   ar
    21    24    25   ar
    22    25    26   ar
    23    26    29    1
    24    29    30    3
    25    26    27   ar
    26    27    28   ar
    27     5     6   ar
    28    16    10   ar
    29     6     1   ar
    30    28    23   ar
    31     7     8    1
    32    21    22    1
@<TRIPOS>MOLECULE
*****
 30 32 0 0 0
SMALL
GASTEIGER

@<TRIPOS>ATOM
      1 C          63.1484   86.4209   13.2416 C.ar    1  UNL1        0.1366
      2 C          64.1988   86.0818   14.2574 C.ar    1  UNL1        0.0552
      3 C          64.9410   87.1777   14.9632 C.ar    1  UNL1        0.1047
      4 N          64.6329   88.6127   14.6532 N.ar    1  UNL1       -0.2119
      5 C          63.5825   88.9517   13.6374 C.ar    1  UNL1        0.2218
      6 N          62.8403   87.8558   12.9316 N.ar    1  UNL1       -0.1985
      7 N          62.4061   85.3251   12.5357 N.pl3   1  UNL1       -0.2983
      8 H          61.8735   84.6788   13.0532 H       1  UNL1        0.1536
      9 C          64.3028   83.3804   11.2625 C.3     1  UNL1        0.0323
     10 C          63.4238   84.2417   10.4048 C.ar    1  UNL1       -0.0087
     11 C          63.4931   84.1306    8.9106 C.ar    1  UNL1       -0.0030
     12 C          62.6141   84.9919    8.0529 C.ar    1  UNL1        0.0001
     13 C          61.6658   85.9642    8.6895 C.ar    1  UNL1       -0.0030
     14 C          61.5965   86.0752   10.1837 C.ar    1  UNL1       -0.0087
     15 C          60.6482   87.0476   10.8204 C.3     1  UNL1        0.0323
     16 C          62.4755   85.2140   11.0414 C.ar    1  UNL1        0.0413
     17 C          62.6834   84.8807    6.5586 C.2     1  UNL1        0.0109
     18 C          61.5158   84.3337    5.7922 C.2     1  UNL1        0.0780
     19 C          61.5851   84.2226    4.2980 C.1     1  UNL1        0.1011
     20 N          61.6544   84.1114    2.8037 N.1     1  UNL1       -0.1908
     21 N          63.2744   90.3866   13.3274 N.pl3   1  UNL1       -0.2825
     22 H          62.4252   90.7838   13.6280 H       1  UNL1        0.1551
     23 C          64.2602   91.2164   12.5595 C.ar    1  UNL1        0.0505
     24 C          65.5002   91.7236   13.2342 C.ar    1  UNL1        0.0154
     25 C          66.4859   92.5534   12.4663 C.ar    1  UNL1        0.0115
     26 C          66.2317   92.8759   11.0236 C.ar    1  UNL1        0.0685
     27 C          64.9918   92.3688   10.3489 C.ar    1  UNL1        0.0115
     28 C          64.0060   91.5390   11.1168 C.ar    1  UNL1        0.0154
     29 C          67.2175   93.7057   10.2556 C.1     1  UNL1        0.1004
     30 N          68.2033   94.5355    9.4877 N.1     1  UNL1       -0.1908
@<TRIPOS>BOND
     1     9    10    1
     2    10    11   ar
     3    11    12   ar
     4    12    17    1
     5    17    18    2
     6    18    19    1
     7    19    20    3
     8    12    13   ar
     9    13    14   ar
    10    14    15    1
    11    14    16   ar
    12    16     7    1
    13     7     1    1
    14     1     2   ar
    15     2     3   ar
    16     3     4   ar
    17     4     5   ar
    18     5    21    1
    19    21    23    1
    20    23    24   ar
    21    24    25   ar
    22    25    26   ar
    23    26    29    1
    24    29    30    3
    25    26    27   ar
    26    27    28   ar
    27     5     6   ar
    28    16    10   ar
    29     6     1   ar
    30    28    23   ar
    31     7     8    1
    32    21    22    1
