@<TRIPOS>MOLECULE
*****
 38 42 0 0 0
SMALL
GASTEIGER

@<TRIPOS>ATOM
      1 N          63.8561   88.8185   16.5121 N.am    1  UNL1       -0.2996
      2 C          63.4362   89.8009   15.4592 C.2     1  UNL1        0.2648
      3 O          62.0259   89.7955   14.9483 O.2     1  UNL1       -0.2684
      4 H          64.7818   88.8220   16.8475 H       1  UNL1        0.1498
      5 C          64.4264   90.7886   14.9173 C.ar    1  UNL1        0.1476
      6 N          65.3951   91.6000   15.7257 N.ar    1  UNL1       -0.2264
      7 C          66.1892   92.4513   14.7799 C.ar    1  UNL1        0.1245
      8 C          67.2712   93.4181   15.1602 C.3     1  UNL1        0.0722
      9 N          65.7115   92.1660   13.3869 N.ar    1  UNL1       -0.2971
     10 C          64.6221   91.1384   13.4718 C.ar    1  UNL1        0.0648
     11 C          63.8617   90.5619   12.3144 C.3     1  UNL1        0.0522
     12 C          66.2319   92.7974   12.1297 C.ar    1  UNL1        0.0680
     13 C          67.1626   92.0326   11.2359 C.ar    1  UNL1        0.0209
     14 C          67.6830   92.6639    9.9788 C.ar    1  UNL1        0.0415
     15 C          67.2726   94.0602    9.6152 C.ar    1  UNL1        0.1725
     16 C          66.3419   94.8250   10.5089 C.ar    1  UNL1        0.1738
     17 C          65.8215   94.1936   11.7662 C.ar    1  UNL1        0.0576
     18 O          65.9315   96.2212   10.1455 O.3     1  UNL1       -0.4683
     19 C          66.4518   96.8526    8.8883 C.3     1  UNL1        0.2526
     20 C          67.3826   96.0877    7.9946 C.3     1  UNL1        0.2526
     21 O          67.7929   94.6915    8.3580 O.3     1  UNL1       -0.4684
     22 C          62.8659   87.8307   17.0540 C.3     1  UNL1        0.0912
     23 C          63.0251   86.3692   16.7570 C.3     1  UNL1        0.0386
     24 C          63.9940   85.9191   15.7041 C.3     1  UNL1        0.0739
     25 N          62.6967   85.6934   11.4010 N.pl3   1  UNL1       -0.3049
     26 C          62.6827   84.4598   12.2543 C.3     1  UNL1        0.1081
     27 C          63.1152   84.5350   13.6886 C.3     1  UNL1        0.0938
     28 N          63.5616   85.8439   14.2697 N.3     1  UNL1       -0.2697
     29 C          63.5755   87.0775   13.4165 C.3     1  UNL1        0.0938
     30 C          63.1431   87.0022   11.9821 C.3     1  UNL1        0.1081
     31 C          59.3304   86.9412    7.6445 C.3     1  UNL1        0.0307
     32 C          60.5811   86.2421    8.0884 C.ar    1  UNL1       -0.0246
     33 C          61.3994   85.4677    7.0981 C.ar    1  UNL1       -0.0045
     34 C          62.6500   84.7686    7.5420 C.ar    1  UNL1        0.0009
     35 C          63.0825   84.8438    8.9762 C.ar    1  UNL1        0.0142
     36 C          62.2642   85.6182    9.9667 C.ar    1  UNL1        0.0436
     37 C          61.0136   86.3173    9.5228 C.ar    1  UNL1       -0.0125
     38 C          60.1954   87.0916   10.5132 C.3     1  UNL1        0.0320
@<TRIPOS>BOND
     1    31    32    1
     2    32    33   ar
     3    33    34   ar
     4    34    35   ar
     5    35    36   ar
     6    36    25    1
     7    25    26    1
     8    26    27    1
     9    27    28    1
    10    28    24    1
    11    24    23    1
    12    23    22    1
    13    22     1    1
    14     1     2   am
    15     2     3    2
    16     2     5    1
    17     5     6   ar
    18     6     7   ar
    19     7     8    1
    20     7     9   ar
    21     9    12    1
    22    12    13   ar
    23    13    14   ar
    24    14    15   ar
    25    15    16   ar
    26    16    17   ar
    27    16    18    1
    28    18    19    1
    29    19    20    1
    30    20    21    1
    31     9    10   ar
    32    10    11    1
    33    28    29    1
    34    29    30    1
    35    36    37   ar
    36    37    38    1
    37    37    32   ar
    38    30    25    1
    39    10     5   ar
    40    17    12   ar
    41    21    15    1
    42     1     4    1
@<TRIPOS>MOLECULE
*****
 38 42 0 0 0
SMALL
GASTEIGER

@<TRIPOS>ATOM
      1 N          63.6307   89.2674   16.4063 N.am    1  UNL1       -0.2996
      2 C          63.4777   89.9097   15.0594 C.2     1  UNL1        0.2648
      3 O          62.1979   89.7500   14.2933 O.2     1  UNL1       -0.2684
      4 H          64.4706   89.3721   16.9091 H       1  UNL1        0.1498
      5 C          64.6044   90.7116   14.4786 C.ar    1  UNL1        0.1476
      6 N          65.8886   91.0587   15.1718 N.ar    1  UNL1       -0.2264
      7 C          66.7226   91.8689   14.2242 C.ar    1  UNL1        0.1245
      8 C          68.0859   92.4273   14.5060 C.3     1  UNL1        0.0722
      9 N          65.9539   92.0226   12.9454 N.ar    1  UNL1       -0.2971
     10 C          64.6448   91.3074   13.1025 C.ar    1  UNL1        0.0648
     11 C          63.5655   91.2058   12.0657 C.3     1  UNL1        0.0522
     12 C          66.4136   92.7618   11.7237 C.ar    1  UNL1        0.0680
     13 C          67.5091   92.1934   10.8712 C.ar    1  UNL1        0.0209
     14 C          67.9688   92.9325    9.6496 C.ar    1  UNL1        0.0415
     15 C          67.3330   94.2401    9.2805 C.ar    1  UNL1        0.1725
     16 C          66.2376   94.8085   10.1330 C.ar    1  UNL1        0.1738
     17 C          65.7779   94.0693   11.3547 C.ar    1  UNL1        0.0576
     18 O          65.6018   96.1160    9.7640 O.3     1  UNL1       -0.4683
     19 C          66.0615   96.8551    8.5424 C.3     1  UNL1        0.2526
     20 C          67.1570   96.2867    7.6899 C.3     1  UNL1        0.2526
     21 O          67.7928   94.9792    8.0589 O.3     1  UNL1       -0.4684
     22 C          62.5039   88.4654   16.9871 C.3     1  UNL1        0.0912
     23 C          62.7757   87.4677   18.0736 C.3     1  UNL1        0.0386
     24 C          62.8573   86.0061   17.7464 C.3     1  UNL1        0.0739
     25 N          63.3290   84.6801   13.4721 N.pl3   1  UNL1       -0.3049
     26 C          64.2899   85.6702   14.0606 C.3     1  UNL1        0.1081
     27 C          64.1326   86.1122   15.4854 C.3     1  UNL1        0.0938
     28 N          63.0145   85.5641   16.3216 N.3     1  UNL1       -0.2697
     29 C          62.0537   84.5740   15.7331 C.3     1  UNL1        0.0938
     30 C          62.2109   84.1320   14.3084 C.3     1  UNL1        0.1081
     31 C          62.6331   85.5311    8.3936 C.3     1  UNL1        0.0307
     32 C          63.1383   84.6636    9.5081 C.ar    1  UNL1       -0.0246
     33 C          63.8007   83.3540    9.1979 C.ar    1  UNL1       -0.0045
     34 C          64.3059   82.4865   10.3124 C.ar    1  UNL1        0.0009
     35 C          64.1487   82.9285   11.7371 C.ar    1  UNL1        0.0142
     36 C          63.4862   84.2381   12.0473 C.ar    1  UNL1        0.0436
     37 C          62.9810   85.1056   10.9328 C.ar    1  UNL1       -0.0125
     38 C          62.3186   86.4152   11.2431 C.3     1  UNL1        0.0320
@<TRIPOS>BOND
     1    31    32    1
     2    32    33   ar
     3    33    34   ar
     4    34    35   ar
     5    35    36   ar
     6    36    25    1
     7    25    26    1
     8    26    27    1
     9    27    28    1
    10    28    24    1
    11    24    23    1
    12    23    22    1
    13    22     1    1
    14     1     2   am
    15     2     3    2
    16     2     5    1
    17     5     6   ar
    18     6     7   ar
    19     7     8    1
    20     7     9   ar
    21     9    12    1
    22    12    13   ar
    23    13    14   ar
    24    14    15   ar
    25    15    16   ar
    26    16    17   ar
    27    16    18    1
    28    18    19    1
    29    19    20    1
    30    20    21    1
    31     9    10   ar
    32    10    11    1
    33    28    29    1
    34    29    30    1
    35    36    37   ar
    36    37    38    1
    37    37    32   ar
    38    30    25    1
    39    10     5   ar
    40    17    12   ar
    41    21    15    1
    42     1     4    1
@<TRIPOS>MOLECULE
*****
 38 42 0 0 0
SMALL
GASTEIGER

@<TRIPOS>ATOM
      1 N          63.5816   89.2283   15.4049 N.am    1  UNL1       -0.2996
      2 C          64.0346   90.6073   15.7834 C.2     1  UNL1        0.2648
      3 O          63.4133   91.3052   16.9567 O.2     1  UNL1       -0.2684
      4 H          63.9894   88.7702   14.6348 H       1  UNL1        0.1498
      5 C          65.1090   91.2883   14.9885 C.ar    1  UNL1        0.1476
      6 N          66.4884   91.6217   15.4746 N.ar    1  UNL1       -0.2264
      7 C          67.2245   92.2950   14.3544 C.ar    1  UNL1        0.1245
      8 C          68.6370   92.7973   14.4039 C.3     1  UNL1        0.0722
      9 N          66.3001   92.3778   13.1760 N.ar    1  UNL1       -0.2971
     10 C          64.9927   91.7557   13.5678 C.ar    1  UNL1        0.0648
     11 C          63.7815   91.6240   12.6927 C.3     1  UNL1        0.0522
     12 C          66.6259   92.9775   11.8402 C.ar    1  UNL1        0.0680
     13 C          67.5113   92.2375   10.8818 C.ar    1  UNL1        0.0209
     14 C          67.8371   92.8371    9.5460 C.ar    1  UNL1        0.0415
     15 C          67.2776   94.1768    9.1686 C.ar    1  UNL1        0.1725
     16 C          66.3922   94.9167   10.1271 C.ar    1  UNL1        0.1738
     17 C          66.0664   94.3171   11.4629 C.ar    1  UNL1        0.0576
     18 O          65.8327   96.2563    9.7498 O.3     1  UNL1       -0.4683
     19 C          66.1585   96.8559    8.4140 C.3     1  UNL1        0.2526
     20 C          67.0439   96.1159    7.4556 C.3     1  UNL1        0.2526
     21 O          67.6034   94.7764    7.8329 O.3     1  UNL1       -0.4684
     22 C          62.5073   88.5472   16.1998 C.3     1  UNL1        0.0912
     23 C          62.8423   87.8930   17.5073 C.3     1  UNL1        0.0386
     24 C          62.8966   86.3973   17.6054 C.3     1  UNL1        0.0739
     25 N          63.2740   83.9099   13.8743 N.pl3   1  UNL1       -0.3049
     26 C          61.9593   83.9911   14.5918 C.3     1  UNL1        0.1081
     27 C          61.8335   84.8202   15.8355 C.3     1  UNL1        0.0938
     28 N          63.0224   85.5682   16.3617 N.3     1  UNL1       -0.2697
     29 C          64.3372   85.4870   15.6442 C.3     1  UNL1        0.0938
     30 C          64.4630   84.6579   14.4005 C.3     1  UNL1        0.1081
     31 C          62.7145   79.3637   11.4209 C.3     1  UNL1        0.0307
     32 C          63.1200   80.8077   11.4039 C.ar    1  UNL1       -0.0246
     33 C          63.6515   81.4228   10.1432 C.ar    1  UNL1       -0.0045
     34 C          64.0571   82.8668   10.1261 C.ar    1  UNL1        0.0009
     35 C          63.9313   83.6958   11.3698 C.ar    1  UNL1        0.0142
     36 C          63.3998   83.0808   12.6305 C.ar    1  UNL1        0.0436
     37 C          62.9942   81.6368   12.6476 C.ar    1  UNL1       -0.0125
     38 C          62.4628   81.0219   13.9083 C.3     1  UNL1        0.0320
@<TRIPOS>BOND
     1    31    32    1
     2    32    33   ar
     3    33    34   ar
     4    34    35   ar
     5    35    36   ar
     6    36    25    1
     7    25    26    1
     8    26    27    1
     9    27    28    1
    10    28    24    1
    11    24    23    1
    12    23    22    1
    13    22     1    1
    14     1     2   am
    15     2     3    2
    16     2     5    1
    17     5     6   ar
    18     6     7   ar
    19     7     8    1
    20     7     9   ar
    21     9    12    1
    22    12    13   ar
    23    13    14   ar
    24    14    15   ar
    25    15    16   ar
    26    16    17   ar
    27    16    18    1
    28    18    19    1
    29    19    20    1
    30    20    21    1
    31     9    10   ar
    32    10    11    1
    33    28    29    1
    34    29    30    1
    35    36    37   ar
    36    37    38    1
    37    37    32   ar
    38    30    25    1
    39    10     5   ar
    40    17    12   ar
    41    21    15    1
    42     1     4    1
@<TRIPOS>MOLECULE
*****
 38 42 0 0 0
SMALL
GASTEIGER

@<TRIPOS>ATOM
      1 N          59.7501   90.1260    6.5820 N.am    1  UNL1       -0.2996
      2 C          59.3568   88.9352    7.4051 C.2     1  UNL1        0.2648
      3 O          58.0288   88.2746    7.1816 O.2     1  UNL1       -0.2684
      4 H          60.6217   90.5596    6.7286 H       1  UNL1        0.1498
      5 C          60.2915   88.4052    8.4517 C.ar    1  UNL1        0.1476
      6 N          60.9943   89.2172    9.4990 N.ar    1  UNL1       -0.2264
      7 C          61.8247   88.2839   10.3293 C.ar    1  UNL1        0.1245
      8 C          62.6923   88.6713   11.4899 C.3     1  UNL1        0.0722
      9 N          61.6352   86.8951    9.7951 N.ar    1  UNL1       -0.2971
     10 C          60.6876   86.9700    8.6347 C.ar    1  UNL1        0.0648
     11 C          60.2186   85.8130    7.8033 C.3     1  UNL1        0.0522
     12 C          62.2800   85.6499   10.3279 C.ar    1  UNL1        0.0680
     13 C          63.1637   84.8244    9.4404 C.ar    1  UNL1        0.0209
     14 C          63.8085   83.5792    9.9731 C.ar    1  UNL1        0.0415
     15 C          63.5697   83.1595   11.3933 C.ar    1  UNL1        0.1725
     16 C          62.6859   83.9850   12.2807 C.ar    1  UNL1        0.1738
     17 C          62.0411   85.2303   11.7480 C.ar    1  UNL1        0.0576
     18 O          62.4470   83.5654   13.7008 O.3     1  UNL1       -0.4683
     19 C          63.0918   82.3202   14.2335 C.3     1  UNL1        0.2526
     20 C          63.9756   81.4947   13.3460 C.3     1  UNL1        0.2526
     21 O          64.2145   81.9144   11.9259 O.3     1  UNL1       -0.4684
     22 C          58.8154   90.6560    5.5354 C.3     1  UNL1        0.0912
     23 C          59.3090   91.6428    4.5194 C.3     1  UNL1        0.0386
     24 C          60.7754   91.9405    4.4137 C.3     1  UNL1        0.0739
     25 N          62.5017   93.3927    0.5200 N.pl3   1  UNL1       -0.3049
     26 C          63.3599   92.6241    1.4806 C.3     1  UNL1        0.1081
     27 C          62.7844   92.1400    2.7785 C.3     1  UNL1        0.0938
     28 N          61.3508   92.4245    3.1158 N.3     1  UNL1       -0.2697
     29 C          60.4927   93.1931    2.1552 C.3     1  UNL1        0.0938
     30 C          61.0681   93.6772    0.8573 C.3     1  UNL1        0.1081
     31 C          65.6492   96.5999   -2.0891 C.3     1  UNL1        0.0307
     32 C          64.6509   95.4804   -2.0825 C.ar    1  UNL1       -0.0246
     33 C          64.2280   94.8448   -3.3737 C.ar    1  UNL1       -0.0045
     34 C          63.2297   93.7253   -3.3671 C.ar    1  UNL1        0.0009
     35 C          62.6543   93.2412   -2.0692 C.ar    1  UNL1        0.0142
     36 C          63.0772   93.8768   -0.7779 C.ar    1  UNL1        0.0436
     37 C          64.0754   94.9963   -0.7846 C.ar    1  UNL1       -0.0125
     38 C          64.4983   95.6318    0.5067 C.3     1  UNL1        0.0320
@<TRIPOS>BOND
     1    31    32    1
     2    32    33   ar
     3    33    34   ar
     4    34    35   ar
     5    35    36   ar
     6    36    25    1
     7    25    26    1
     8    26    27    1
     9    27    28    1
    10    28    24    1
    11    24    23    1
    12    23    22    1
    13    22     1    1
    14     1     2   am
    15     2     3    2
    16     2     5    1
    17     5     6   ar
    18     6     7   ar
    19     7     8    1
    20     7     9   ar
    21     9    12    1
    22    12    13   ar
    23    13    14   ar
    24    14    15   ar
    25    15    16   ar
    26    16    17   ar
    27    16    18    1
    28    18    19    1
    29    19    20    1
    30    20    21    1
    31     9    10   ar
    32    10    11    1
    33    28    29    1
    34    29    30    1
    35    36    37   ar
    36    37    38    1
    37    37    32   ar
    38    30    25    1
    39    10     5   ar
    40    17    12   ar
    41    21    15    1
    42     1     4    1
@<TRIPOS>MOLECULE
*****
 38 42 0 0 0
SMALL
GASTEIGER

@<TRIPOS>ATOM
      1 N          63.0777   88.5983   15.9020 N.am    1  UNL1       -0.2996
      2 C          63.9929   88.1937   14.7845 C.2     1  UNL1        0.2648
      3 O          65.3253   88.8642   14.6263 O.2     1  UNL1       -0.2684
      4 H          62.2031   88.1583   16.0058 H       1  UNL1        0.1498
      5 C          63.5756   87.1187   13.8253 C.ar    1  UNL1        0.1476
      6 N          63.0660   87.3307   12.4305 N.ar    1  UNL1       -0.2264
      7 C          62.7702   85.9859   11.8356 C.ar    1  UNL1        0.1245
      8 C          62.2405   85.7293   10.4559 C.3     1  UNL1        0.0722
      9 N          63.0970   84.9427   12.8627 N.ar    1  UNL1       -0.2971
     10 C          63.5948   85.6427   14.0924 C.ar    1  UNL1        0.0648
     11 C          64.0345   84.9827   15.3656 C.3     1  UNL1        0.0522
     12 C          62.9515   83.4597   12.6903 C.ar    1  UNL1        0.0680
     13 C          62.6140   82.5971   13.8701 C.ar    1  UNL1        0.0209
     14 C          62.4685   81.1142   13.6979 C.ar    1  UNL1        0.0415
     15 C          62.6606   80.4938   12.3457 C.ar    1  UNL1        0.1725
     16 C          62.9981   81.3563   11.1659 C.ar    1  UNL1        0.1738
     17 C          63.1436   82.8394   11.3382 C.ar    1  UNL1        0.0576
     18 O          63.1902   80.7360    9.8138 O.3     1  UNL1       -0.4683
     19 C          63.0448   79.2531    9.6415 C.3     1  UNL1        0.2526
     20 C          62.7072   78.3905   10.8213 C.3     1  UNL1        0.2526
     21 O          62.5151   79.0108   12.1734 O.3     1  UNL1       -0.4684
     22 C          63.4949   89.6734   16.8612 C.3     1  UNL1        0.0912
     23 C          63.4133   91.1147   16.4541 C.3     1  UNL1        0.0386
     24 C          64.6634   91.9374   16.3529 C.3     1  UNL1        0.0739
     25 N          66.4441   92.8375   12.3194 N.pl3   1  UNL1       -0.3049
     26 C          65.1428   92.0979   12.4166 C.3     1  UNL1        0.1081
     27 C          64.5492   91.7978   13.7611 C.3     1  UNL1        0.0938
     28 N          65.2570   92.2374   15.0084 N.3     1  UNL1       -0.2697
     29 C          66.5583   92.9771   14.9112 C.3     1  UNL1        0.0938
     30 C          67.1519   93.2771   13.5667 C.3     1  UNL1        0.1081
     31 C          67.1187   96.0883    8.3221 C.3     1  UNL1        0.0307
     32 C          67.3749   94.7630    8.9762 C.ar    1  UNL1       -0.0246
     33 C          68.2247   93.7376    8.2859 C.ar    1  UNL1       -0.0045
     34 C          68.4810   92.4123    8.9400 C.ar    1  UNL1        0.0009
     35 C          67.8875   92.1122   10.2844 C.ar    1  UNL1        0.0142
     36 C          67.0376   93.1376   10.9748 C.ar    1  UNL1        0.0436
     37 C          66.7814   94.4629   10.3207 C.ar    1  UNL1       -0.0125
     38 C          65.9316   95.4882   11.0112 C.3     1  UNL1        0.0320
@<TRIPOS>BOND
     1    31    32    1
     2    32    33   ar
     3    33    34   ar
     4    34    35   ar
     5    35    36   ar
     6    36    25    1
     7    25    26    1
     8    26    27    1
     9    27    28    1
    10    28    24    1
    11    24    23    1
    12    23    22    1
    13    22     1    1
    14     1     2   am
    15     2     3    2
    16     2     5    1
    17     5     6   ar
    18     6     7   ar
    19     7     8    1
    20     7     9   ar
    21     9    12    1
    22    12    13   ar
    23    13    14   ar
    24    14    15   ar
    25    15    16   ar
    26    16    17   ar
    27    16    18    1
    28    18    19    1
    29    19    20    1
    30    20    21    1
    31     9    10   ar
    32    10    11    1
    33    28    29    1
    34    29    30    1
    35    36    37   ar
    36    37    38    1
    37    37    32   ar
    38    30    25    1
    39    10     5   ar
    40    17    12   ar
    41    21    15    1
    42     1     4    1
@<TRIPOS>MOLECULE
*****
 38 42 0 0 0
SMALL
GASTEIGER

@<TRIPOS>ATOM
      1 N          59.0910   92.2589    3.7248 N.am    1  UNL1       -0.2996
      2 C          60.4259   92.3445    3.0459 C.2     1  UNL1        0.2648
      3 O          61.6733   91.9814    3.7958 O.2     1  UNL1       -0.2684
      4 H          58.2723   92.4972    3.2326 H       1  UNL1        0.1498
      5 C          60.5134   92.7931    1.6173 C.ar    1  UNL1        0.1476
      6 N          59.3540   93.0411    0.6984 N.ar    1  UNL1       -0.2264
      7 C          59.8997   93.4738   -0.6301 C.ar    1  UNL1        0.1245
      8 C          59.0909   93.8254   -1.8434 C.3     1  UNL1        0.0722
      9 N          61.3964   93.4932   -0.5323 N.ar    1  UNL1       -0.2971
     10 C          61.7758   93.0725    0.8566 C.ar    1  UNL1        0.0648
     11 C          63.1721   92.9523    1.3911 C.3     1  UNL1        0.0522
     12 C          62.3470   93.8675   -1.6307 C.ar    1  UNL1        0.0680
     13 C          63.0499   95.1921   -1.5952 C.ar    1  UNL1        0.0209
     14 C          64.0005   95.5665   -2.6934 C.ar    1  UNL1        0.0415
     15 C          64.2481   94.6162   -3.8274 C.ar    1  UNL1        0.1725
     16 C          63.5452   93.2916   -3.8629 C.ar    1  UNL1        0.1738
     17 C          62.5947   92.9172   -2.7645 C.ar    1  UNL1        0.0576
     18 O          63.7929   92.3413   -4.9967 O.3     1  UNL1       -0.4683
     19 C          64.7434   92.7156   -6.0950 C.3     1  UNL1        0.2526
     20 C          65.4463   94.0403   -6.0594 C.3     1  UNL1        0.2526
     21 O          65.1987   94.9906   -4.9256 O.3     1  UNL1       -0.4684
     22 C          59.0035   91.8103    5.1534 C.3     1  UNL1        0.0912
     23 C          59.3701   90.4032    5.5214 C.3     1  UNL1        0.0386
     24 C          58.6868   89.7268    6.6727 C.3     1  UNL1        0.0739
     25 N          60.9874   86.8934    9.3051 N.pl3   1  UNL1       -0.3049
     26 C          61.0982   88.3739    9.5196 C.3     1  UNL1        0.1081
     27 C          60.3313   89.3183    8.6421 C.3     1  UNL1        0.0938
     28 N          59.4537   88.7823    7.5502 N.3     1  UNL1       -0.2697
     29 C          59.3429   87.3019    7.3357 C.3     1  UNL1        0.0938
     30 C          60.1098   86.3574    8.2131 C.3     1  UNL1        0.1081
     31 C          64.4257   83.0342    9.8391 C.3     1  UNL1        0.0307
     32 C          63.4734   84.0194   10.4496 C.ar    1  UNL1       -0.0246
     33 C          63.2880   84.0602   11.9375 C.ar    1  UNL1       -0.0045
     34 C          62.3357   85.0453   12.5480 C.ar    1  UNL1        0.0009
     35 C          61.5689   85.9897   11.6706 C.ar    1  UNL1        0.0142
     36 C          61.7543   85.9490   10.1826 C.ar    1  UNL1        0.0436
     37 C          62.7065   84.9638    9.5721 C.ar    1  UNL1       -0.0125
     38 C          62.8919   84.9231    8.0842 C.3     1  UNL1        0.0320
@<TRIPOS>BOND
     1    31    32    1
     2    32    33   ar
     3    33    34   ar
     4    34    35   ar
     5    35    36   ar
     6    36    25    1
     7    25    26    1
     8    26    27    1
     9    27    28    1
    10    28    24    1
    11    24    23    1
    12    23    22    1
    13    22     1    1
    14     1     2   am
    15     2     3    2
    16     2     5    1
    17     5     6   ar
    18     6     7   ar
    19     7     8    1
    20     7     9   ar
    21     9    12    1
    22    12    13   ar
    23    13    14   ar
    24    14    15   ar
    25    15    16   ar
    26    16    17   ar
    27    16    18    1
    28    18    19    1
    29    19    20    1
    30    20    21    1
    31     9    10   ar
    32    10    11    1
    33    28    29    1
    34    29    30    1
    35    36    37   ar
    36    37    38    1
    37    37    32   ar
    38    30    25    1
    39    10     5   ar
    40    17    12   ar
    41    21    15    1
    42     1     4    1
@<TRIPOS>MOLECULE
*****
 38 42 0 0 0
SMALL
GASTEIGER

@<TRIPOS>ATOM
      1 N          59.8266   92.0375    4.1237 N.am    1  UNL1       -0.2996
      2 C          60.8908   92.5176    3.1819 C.2     1  UNL1        0.2648
      3 O          62.3158   92.0941    3.3817 O.2     1  UNL1       -0.2684
      4 H          58.8913   92.3154    3.9926 H       1  UNL1        0.1498
      5 C          60.5300   93.4212    2.0404 C.ar    1  UNL1        0.1476
      6 N          60.0749   94.8461    2.1535 N.ar    1  UNL1       -0.2264
      7 C          59.8245   95.3642    0.7682 C.ar    1  UNL1        0.1245
      8 C          59.3561   96.7445    0.4144 C.3     1  UNL1        0.0722
      9 N          60.1249   94.2595   -0.2011 N.ar    1  UNL1       -0.2971
     10 C          60.5609   93.0587    0.5851 C.ar    1  UNL1        0.0648
     11 C          60.9580   91.7289    0.0160 C.3     1  UNL1        0.0522
     12 C          60.0095   94.3413   -1.6944 C.ar    1  UNL1        0.0680
     13 C          60.9963   95.1537   -2.4795 C.ar    1  UNL1        0.0209
     14 C          60.8810   95.2354   -3.9728 C.ar    1  UNL1        0.0415
     15 C          59.7789   94.5048   -4.6811 C.ar    1  UNL1        0.1725
     16 C          58.7921   93.6924   -3.8960 C.ar    1  UNL1        0.1738
     17 C          58.9075   93.6107   -2.4026 C.ar    1  UNL1        0.0576
     18 O          57.6901   92.9618   -4.6042 O.3     1  UNL1       -0.4683
     19 C          57.5747   93.0436   -6.0975 C.3     1  UNL1        0.2526
     20 C          58.5615   93.8560   -6.8826 C.3     1  UNL1        0.2526
     21 O          59.6636   94.5866   -6.1744 O.3     1  UNL1       -0.4684
     22 C          60.1874   91.1338    5.2653 C.3     1  UNL1        0.0912
     23 C          59.2911   89.9865    5.6258 C.3     1  UNL1        0.0386
     24 C          58.9051   89.7573    7.0570 C.3     1  UNL1        0.0739
     25 N          61.1928   86.7973    9.5581 N.pl3   1  UNL1       -0.3049
     26 C          61.4185   88.2686    9.7435 C.3     1  UNL1        0.1081
     27 C          60.6559   89.2553    8.9098 C.3     1  UNL1        0.0938
     28 N          59.6677   88.7706    7.8907 N.3     1  UNL1       -0.2697
     29 C          59.4420   87.2993    7.7054 C.3     1  UNL1        0.0938
     30 C          60.2046   86.3127    8.5391 C.3     1  UNL1        0.1081
     31 C          64.5541   82.8503    9.9090 C.3     1  UNL1        0.0307
     32 C          63.6361   83.8372   10.5673 C.ar    1  UNL1       -0.0246
     33 C          63.4805   83.8375   12.0592 C.ar    1  UNL1       -0.0045
     34 C          62.5624   84.8243   12.7174 C.ar    1  UNL1        0.0009
     35 C          61.7999   85.8109   11.8838 C.ar    1  UNL1        0.0142
     36 C          61.9554   85.8107   10.3918 C.ar    1  UNL1        0.0436
     37 C          62.8735   84.8238    9.7336 C.ar    1  UNL1       -0.0125
     38 C          63.0289   84.8236    8.2417 C.3     1  UNL1        0.0320
@<TRIPOS>BOND
     1    31    32    1
     2    32    33   ar
     3    33    34   ar
     4    34    35   ar
     5    35    36   ar
     6    36    25    1
     7    25    26    1
     8    26    27    1
     9    27    28    1
    10    28    24    1
    11    24    23    1
    12    23    22    1
    13    22     1    1
    14     1     2   am
    15     2     3    2
    16     2     5    1
    17     5     6   ar
    18     6     7   ar
    19     7     8    1
    20     7     9   ar
    21     9    12    1
    22    12    13   ar
    23    13    14   ar
    24    14    15   ar
    25    15    16   ar
    26    16    17   ar
    27    16    18    1
    28    18    19    1
    29    19    20    1
    30    20    21    1
    31     9    10   ar
    32    10    11    1
    33    28    29    1
    34    29    30    1
    35    36    37   ar
    36    37    38    1
    37    37    32   ar
    38    30    25    1
    39    10     5   ar
    40    17    12   ar
    41    21    15    1
    42     1     4    1
@<TRIPOS>MOLECULE
*****
 38 42 0 0 0
SMALL
GASTEIGER

@<TRIPOS>ATOM
      1 N          63.0656   88.7669   15.8447 N.am    1  UNL1       -0.2996
      2 C          64.0343   88.3161   14.7919 C.2     1  UNL1        0.2648
      3 O          65.4130   88.9048   14.7398 O.2     1  UNL1       -0.2684
      4 H          62.1607   88.3805   15.8788 H       1  UNL1        0.1498
      5 C          63.6244   87.2766   13.7912 C.ar    1  UNL1        0.1476
      6 N          63.7357   85.7910   13.9671 N.ar    1  UNL1       -0.2264
      7 C          63.2113   85.1364   12.7235 C.ar    1  UNL1        0.1245
      8 C          63.1356   83.6602   12.4691 C.3     1  UNL1        0.0722
      9 N          62.7760   86.2173   11.7790 N.ar    1  UNL1       -0.2971
     10 C          63.0313   87.5400   12.4388 C.ar    1  UNL1        0.0648
     11 C          62.7440   88.8893   11.8497 C.3     1  UNL1        0.0522
     12 C          62.1885   86.0117   10.4142 C.ar    1  UNL1        0.0680
     13 C          60.8064   86.5088   10.1100 C.ar    1  UNL1        0.0209
     14 C          60.2188   86.3032    8.7453 C.ar    1  UNL1        0.0415
     15 C          61.0135   85.6005    7.6847 C.ar    1  UNL1        0.1725
     16 C          62.3957   85.1035    7.9889 C.ar    1  UNL1        0.1738
     17 C          62.9832   85.3091    9.3537 C.ar    1  UNL1        0.0576
     18 O          63.1904   84.4009    6.9283 O.3     1  UNL1       -0.4683
     19 C          62.6029   84.1953    5.5636 C.3     1  UNL1        0.2526
     20 C          61.2207   84.6923    5.2594 C.3     1  UNL1        0.2526
     21 O          60.4260   85.3949    6.3199 O.3     1  UNL1       -0.4684
     22 C          63.4755   89.8064   16.8454 C.3     1  UNL1        0.0912
     23 C          63.4034   91.2613   16.4878 C.3     1  UNL1        0.0386
     24 C          64.6625   92.0677   16.3689 C.3     1  UNL1        0.0739
     25 N          66.4586   92.8513   12.3179 N.pl3   1  UNL1       -0.3049
     26 C          65.1588   92.1113   12.4316 C.3     1  UNL1        0.1081
     27 C          64.5601   91.8501   13.7820 C.3     1  UNL1        0.0938
     28 N          65.2612   92.3289   15.0185 N.3     1  UNL1       -0.2697
     29 C          66.5610   93.0688   14.9048 C.3     1  UNL1        0.0938
     30 C          67.1597   93.3300   13.5545 C.3     1  UNL1        0.1081
     31 C          67.1204   95.9717    8.2160 C.3     1  UNL1        0.0307
     32 C          67.3882   94.6727    8.9166 C.ar    1  UNL1       -0.0246
     33 C          68.2547   93.6348    8.2670 C.ar    1  UNL1       -0.0045
     34 C          68.5225   92.3358    8.9676 C.ar    1  UNL1        0.0009
     35 C          67.9238   92.0746   10.3178 C.ar    1  UNL1        0.0142
     36 C          67.0573   93.1125   10.9676 C.ar    1  UNL1        0.0436
     37 C          66.7895   94.4115   10.2670 C.ar    1  UNL1       -0.0125
     38 C          65.9230   95.4493   10.9167 C.3     1  UNL1        0.0320
@<TRIPOS>BOND
     1    31    32    1
     2    32    33   ar
     3    33    34   ar
     4    34    35   ar
     5    35    36   ar
     6    36    25    1
     7    25    26    1
     8    26    27    1
     9    27    28    1
    10    28    24    1
    11    24    23    1
    12    23    22    1
    13    22     1    1
    14     1     2   am
    15     2     3    2
    16     2     5    1
    17     5     6   ar
    18     6     7   ar
    19     7     8    1
    20     7     9   ar
    21     9    12    1
    22    12    13   ar
    23    13    14   ar
    24    14    15   ar
    25    15    16   ar
    26    16    17   ar
    27    16    18    1
    28    18    19    1
    29    19    20    1
    30    20    21    1
    31     9    10   ar
    32    10    11    1
    33    28    29    1
    34    29    30    1
    35    36    37   ar
    36    37    38    1
    37    37    32   ar
    38    30    25    1
    39    10     5   ar
    40    17    12   ar
    41    21    15    1
    42     1     4    1
@<TRIPOS>MOLECULE
*****
 38 42 0 0 0
SMALL
GASTEIGER

@<TRIPOS>ATOM
      1 N          60.8721   91.7859    3.7939 N.am    1  UNL1       -0.2996
      2 C          62.2315   91.8237    3.1610 C.2     1  UNL1        0.2648
      3 O          63.3273   90.9433    3.6844 O.2     1  UNL1       -0.2684
      4 H          60.1529   92.3638    3.4503 H       1  UNL1        0.1498
      5 C          62.4951   92.7419    2.0045 C.ar    1  UNL1        0.1476
      6 N          63.4920   93.8625    1.9778 N.ar    1  UNL1       -0.2264
      7 C          63.4212   94.5139    0.6285 C.ar    1  UNL1        0.1245
      8 C          64.2461   95.6788    0.1674 C.3     1  UNL1        0.0722
      9 N          62.3805   93.7960   -0.1787 N.ar    1  UNL1       -0.2971
     10 C          61.8082   92.7009    0.6716 C.ar    1  UNL1        0.0648
     11 C          60.7370   91.7344    0.2613 C.3     1  UNL1        0.0522
     12 C          61.9821   94.1169   -1.5888 C.ar    1  UNL1        0.0680
     13 C          60.7453   94.9233   -1.8537 C.ar    1  UNL1        0.0209
     14 C          60.3468   95.2442   -3.2637 C.ar    1  UNL1        0.0415
     15 C          61.1852   94.7587   -4.4090 C.ar    1  UNL1        0.1725
     16 C          62.4220   93.9523   -4.1441 C.ar    1  UNL1        0.1738
     17 C          62.8204   93.6314   -2.7340 C.ar    1  UNL1        0.0576
     18 O          63.2603   93.4668   -5.2893 O.3     1  UNL1       -0.4683
     19 C          62.8618   93.7877   -6.6993 C.3     1  UNL1        0.2526
     20 C          61.6250   94.5941   -6.9642 C.3     1  UNL1        0.2526
     21 O          60.7867   95.0795   -5.8190 O.3     1  UNL1       -0.4684
     22 C          60.6085   90.8677    4.9503 C.3     1  UNL1        0.0912
     23 C          59.3372   90.9968    5.7358 C.3     1  UNL1        0.0386
     24 C          58.6664   89.7721    6.2835 C.3     1  UNL1        0.0739
     25 N          60.9022   87.0395    9.0737 N.pl3   1  UNL1       -0.3049
     26 C          60.0662   86.4633    7.9696 C.3     1  UNL1        0.1081
     27 C          59.3210   87.3741    7.0395 C.3     1  UNL1        0.0938
     28 N          59.4117   88.8612    7.2136 N.3     1  UNL1       -0.2697
     29 C          60.2476   89.4375    8.3178 C.3     1  UNL1        0.0938
     30 C          60.9928   88.5266    9.2478 C.3     1  UNL1        0.1081
     31 C          64.3806   83.2560    9.8388 C.3     1  UNL1        0.0307
     32 C          63.3866   84.2369   10.3863 C.ar    1  UNL1       -0.0246
     33 C          63.1378   84.3071   11.8639 C.ar    1  UNL1       -0.0045
     34 C          62.1438   85.2880   12.4114 C.ar    1  UNL1        0.0009
     35 C          61.3986   86.1988   11.4814 C.ar    1  UNL1        0.0142
     36 C          61.6474   86.1287   10.0038 C.ar    1  UNL1        0.0436
     37 C          62.6414   85.1478    9.4563 C.ar    1  UNL1       -0.0125
     38 C          62.8901   85.0777    7.9787 C.3     1  UNL1        0.0320
@<TRIPOS>BOND
     1    31    32    1
     2    32    33   ar
     3    33    34   ar
     4    34    35   ar
     5    35    36   ar
     6    36    25    1
     7    25    26    1
     8    26    27    1
     9    27    28    1
    10    28    24    1
    11    24    23    1
    12    23    22    1
    13    22     1    1
    14     1     2   am
    15     2     3    2
    16     2     5    1
    17     5     6   ar
    18     6     7   ar
    19     7     8    1
    20     7     9   ar
    21     9    12    1
    22    12    13   ar
    23    13    14   ar
    24    14    15   ar
    25    15    16   ar
    26    16    17   ar
    27    16    18    1
    28    18    19    1
    29    19    20    1
    30    20    21    1
    31     9    10   ar
    32    10    11    1
    33    28    29    1
    34    29    30    1
    35    36    37   ar
    36    37    38    1
    37    37    32   ar
    38    30    25    1
    39    10     5   ar
    40    17    12   ar
    41    21    15    1
    42     1     4    1
