@<TRIPOS>MOLECULE
*****
 29 33 0 0 0
SMALL
GASTEIGER

@<TRIPOS>ATOM
      1 O          64.5827   87.9648   14.4466 O.2     1  UNL1       -0.2682
      2 C          64.0502   89.3310   14.1308 C.2     1  UNL1        0.2690
      3 N          63.1767   89.5361   12.9287 N.am    1  UNL1       -0.2673
      4 C          62.6441   90.9023   12.6128 C.3     1  UNL1        0.1006
      5 C          61.7706   91.1074   11.4108 C.3     1  UNL1        0.0703
      6 C          61.4297   89.9462   10.5246 C.ar    1  UNL1        0.0955
      7 N          60.5983   89.8434    9.2804 N.ar    1  UNL1       -0.2136
      8 C          60.6169   88.4136    8.8272 C.ar    1  UNL1        0.2500
      9 O          61.4599   87.6327    9.7914 O.2     1  UNL1       -0.4379
     10 C          61.9622   88.5800   10.8405 C.ar    1  UNL1        0.1580
     11 C          62.8357   88.3749   12.0425 C.3     1  UNL1        0.1598
     12 C          64.3912   90.4922   15.0170 C.ar    1  UNL1        0.1591
     13 N          63.5294   91.0493   16.1110 N.ar    1  UNL1       -0.1419
     14 N          64.2594   92.2016   16.7349 N.ar    1  UNL1       -0.1302
     15 C          65.5725   92.3567   16.0264 C.ar    1  UNL1        0.1637
     16 N          66.7044   93.3234   16.2109 N.ar    1  UNL1       -0.3360
     17 C          67.9178   93.2337   15.3336 C.ar    1  UNL1        0.0735
     18 C          67.9992   92.1772   14.2719 C.ar    1  UNL1        0.0186
     19 C          66.8673   91.2105   14.0874 C.ar    1  UNL1        0.0063
     20 C          65.6539   91.3002   14.9647 C.ar    1  UNL1        0.0596
     21 H          66.6510   94.0168   16.9077 H       1  UNL1        0.1675
     22 C          59.9157   87.8616    7.6215 C.3     1  UNL1        0.2895
     23 O          58.7076   88.5600    7.0714 O.3     1  UNL1       -0.4655
     24 C          58.8734   89.7482    6.1710 C.ar    1  UNL1        0.1393
     25 C          60.2420   90.1574    5.7136 C.ar    1  UNL1        0.0369
     26 C          60.4077   91.3456    4.8131 C.ar    1  UNL1        0.0031
     27 C          59.2049   92.1245    4.3701 C.ar    1  UNL1        0.0002
     28 C          57.8362   91.7153    4.8275 C.ar    1  UNL1        0.0031
     29 C          57.6704   90.5271    5.7279 C.ar    1  UNL1        0.0369
@<TRIPOS>BOND
     1     1     2    2
     2     2    12    1
     3    12    13   ar
     4    13    14   ar
     5    14    15   ar
     6    15    16   ar
     7    16    17   ar
     8    17    18   ar
     9    18    19   ar
    10    19    20   ar
    11     2     3   am
    12     3     4    1
    13     4     5    1
    14     5     6    1
    15     6     7   ar
    16     7     8   ar
    17     8    22    1
    18    22    23    1
    19    23    24    1
    20    24    25   ar
    21    25    26   ar
    22    26    27   ar
    23    27    28   ar
    24    28    29   ar
    25     8     9   ar
    26     9    10   ar
    27    10    11    1
    28    20    12   ar
    29    11     3    1
    30    20    15    1
    31    10     6   ar
    32    29    24   ar
    33    16    21    1
@<TRIPOS>MOLECULE
*****
 29 33 0 0 0
SMALL
GASTEIGER

@<TRIPOS>ATOM
      1 O          64.4769   84.9763   15.8242 O.2     1  UNL1       -0.2682
      2 C          63.6874   84.8884   14.5518 C.2     1  UNL1        0.2690
      3 N          63.4945   86.1100   13.7029 N.am    1  UNL1       -0.2673
      4 C          62.7051   86.0221   12.4305 C.3     1  UNL1        0.1006
      5 C          62.5122   87.2435   11.5816 C.3     1  UNL1        0.0703
      6 C          63.1088   88.5530   12.0051 C.ar    1  UNL1        0.0955
      7 N          63.0865   89.9156   11.3784 N.ar    1  UNL1       -0.2136
      8 C          63.8622   90.8457   12.2634 C.ar    1  UNL1        0.2500
      9 O          64.3639   90.0579   13.4372 O.2     1  UNL1       -0.4379
     10 C          63.8982   88.6409   13.2775 C.ar    1  UNL1        0.1580
     11 C          64.0911   87.4194   14.1265 C.3     1  UNL1        0.1598
     12 C          63.0908   83.5789   14.1283 C.ar    1  UNL1        0.1591
     13 N          62.1402   82.7421   14.9321 N.ar    1  UNL1       -0.1419
     14 N          61.8020   81.5224   14.1271 N.ar    1  UNL1       -0.1302
     15 C          62.5436   81.6054   12.8259 C.ar    1  UNL1        0.1637
     16 N          62.5965   80.6878   11.6405 N.ar    1  UNL1       -0.3360
     17 C          63.4459   81.0413   10.4558 C.ar    1  UNL1        0.0735
     18 C          64.2425   82.3123   10.4566 C.ar    1  UNL1        0.0186
     19 C          64.1896   83.2299   11.6420 C.ar    1  UNL1        0.0063
     20 C          63.3402   82.8764   12.8266 C.ar    1  UNL1        0.0596
     21 H          62.0737   79.8536   11.6400 H       1  UNL1        0.1675
     22 C          64.0952   92.3070   12.0178 C.3     1  UNL1        0.2895
     23 O          65.4316   92.9152   12.3246 O.3     1  UNL1       -0.4655
     24 C          66.3048   93.4087   11.2093 C.ar    1  UNL1        0.1393
     25 C          66.2936   94.8611   10.8345 C.ar    1  UNL1        0.0369
     26 C          67.1669   95.3545    9.7191 C.ar    1  UNL1        0.0031
     27 C          68.0513   94.3957    8.9787 C.ar    1  UNL1        0.0002
     28 C          68.0625   92.9433    9.3535 C.ar    1  UNL1        0.0031
     29 C          67.1893   92.4499   10.4688 C.ar    1  UNL1        0.0369
@<TRIPOS>BOND
     1     1     2    2
     2     2    12    1
     3    12    13   ar
     4    13    14   ar
     5    14    15   ar
     6    15    16   ar
     7    16    17   ar
     8    17    18   ar
     9    18    19   ar
    10    19    20   ar
    11     2     3   am
    12     3     4    1
    13     4     5    1
    14     5     6    1
    15     6     7   ar
    16     7     8   ar
    17     8    22    1
    18    22    23    1
    19    23    24    1
    20    24    25   ar
    21    25    26   ar
    22    26    27   ar
    23    27    28   ar
    24    28    29   ar
    25     8     9   ar
    26     9    10   ar
    27    10    11    1
    28    20    12   ar
    29    11     3    1
    30    20    15    1
    31    10     6   ar
    32    29    24   ar
    33    16    21    1
@<TRIPOS>MOLECULE
*****
 29 33 0 0 0
SMALL
GASTEIGER

@<TRIPOS>ATOM
      1 O          64.6113   84.4729   15.8751 O.2     1  UNL1       -0.2682
      2 C          63.8058   84.4732   14.6097 C.2     1  UNL1        0.2690
      3 N          63.6083   85.7495   13.8467 N.am    1  UNL1       -0.2673
      4 C          62.8029   85.7499   12.5813 C.3     1  UNL1        0.1006
      5 C          62.6054   87.0261   11.8184 C.3     1  UNL1        0.0703
      6 C          63.2133   88.3020   12.3208 C.ar    1  UNL1        0.0955
      7 N          63.1898   89.7035   11.7867 N.ar    1  UNL1       -0.2136
      8 C          63.9807   90.5693   12.7221 C.ar    1  UNL1        0.2500
      9 O          64.4931   89.7030   13.8342 O.2     1  UNL1       -0.4379
     10 C          64.0188   88.3017   13.5862 C.ar    1  UNL1        0.1580
     11 C          64.2163   87.0254   14.3492 C.3     1  UNL1        0.1598
     12 C          63.1979   83.1973   14.1073 C.ar    1  UNL1        0.1591
     13 N          62.2761   82.2973   14.8757 N.ar    1  UNL1       -0.1419
     14 N          61.9135   81.1412   13.9914 N.ar    1  UNL1       -0.1302
     15 C          62.6112   81.3266   12.6766 C.ar    1  UNL1        0.1637
     16 N          62.6262   80.5025   11.4233 N.ar    1  UNL1       -0.3360
     17 C          63.4350   80.9492   10.2417 C.ar    1  UNL1        0.0735
     18 C          64.2288   82.2199   10.3133 C.ar    1  UNL1        0.0186
     19 C          64.2137   83.0440   11.5665 C.ar    1  UNL1        0.0063
     20 C          63.4050   82.5974   12.7481 C.ar    1  UNL1        0.0596
     21 H          62.1052   79.6685   11.3764 H       1  UNL1        0.1675
     22 C          64.2177   92.0429   12.5716 C.3     1  UNL1        0.2895
     23 O          65.6182   92.5711   12.4740 O.3     1  UNL1       -0.4655
     24 C          66.5300   92.5033   13.6631 C.ar    1  UNL1        0.1393
     25 C          67.9607   92.0882   13.4883 C.ar    1  UNL1        0.0369
     26 C          68.8725   92.0203   14.6776 C.ar    1  UNL1        0.0031
     27 C          68.3535   92.3675   16.0413 C.ar    1  UNL1        0.0002
     28 C          66.9227   92.7826   16.2161 C.ar    1  UNL1        0.0031
     29 C          66.0110   92.8505   15.0269 C.ar    1  UNL1        0.0369
@<TRIPOS>BOND
     1     1     2    2
     2     2    12    1
     3    12    13   ar
     4    13    14   ar
     5    14    15   ar
     6    15    16   ar
     7    16    17   ar
     8    17    18   ar
     9    18    19   ar
    10    19    20   ar
    11     2     3   am
    12     3     4    1
    13     4     5    1
    14     5     6    1
    15     6     7   ar
    16     7     8   ar
    17     8    22    1
    18    22    23    1
    19    23    24    1
    20    24    25   ar
    21    25    26   ar
    22    26    27   ar
    23    27    28   ar
    24    28    29   ar
    25     8     9   ar
    26     9    10   ar
    27    10    11    1
    28    20    12   ar
    29    11     3    1
    30    20    15    1
    31    10     6   ar
    32    29    24   ar
    33    16    21    1
@<TRIPOS>MOLECULE
*****
 29 33 0 0 0
SMALL
GASTEIGER

@<TRIPOS>ATOM
      1 O          61.7797   85.7748   11.3301 O.2     1  UNL1       -0.2682
      2 C          62.5114   85.8383   12.6378 C.2     1  UNL1        0.2690
      3 N          63.2166   87.0990   13.0423 N.am    1  UNL1       -0.2673
      4 C          63.9485   87.1625   14.3501 C.3     1  UNL1        0.1006
      5 C          64.6536   88.4231   14.7545 C.3     1  UNL1        0.0703
      6 C          64.6269   89.6202   13.8511 C.ar    1  UNL1        0.0955
      7 N          65.2256   90.9893   13.9812 N.ar    1  UNL1       -0.2136
      8 C          64.8638   91.7720   12.7538 C.ar    1  UNL1        0.2500
      9 O          64.0415   90.8866   11.8651 O.2     1  UNL1       -0.4379
     10 C          63.8951   89.5567   12.5433 C.ar    1  UNL1        0.1580
     11 C          63.1900   88.2961   12.1388 C.3     1  UNL1        0.1598
     12 C          62.5381   84.6411   13.5413 C.ar    1  UNL1        0.1591
     13 N          62.4576   84.6648   15.0389 N.ar    1  UNL1       -0.1419
     14 N          62.5197   83.2485   15.5289 N.ar    1  UNL1       -0.1302
     15 C          62.6387   82.3494   14.3340 C.ar    1  UNL1        0.1637
     16 N          62.7381   80.8582   14.2059 N.ar    1  UNL1       -0.3360
     17 C          62.8488   80.2278   12.8494 C.ar    1  UNL1        0.0735
     18 C          62.8602   81.0885   11.6210 C.ar    1  UNL1        0.0186
     19 C          62.7608   82.5797   11.7491 C.ar    1  UNL1        0.0063
     20 C          62.6500   83.2101   13.1056 C.ar    1  UNL1        0.0596
     21 H          62.7306   80.2933   15.0122 H       1  UNL1        0.1675
     22 C          65.2556   93.1911   12.4657 C.3     1  UNL1        0.2895
     23 O          66.6362   93.5017   11.9683 O.3     1  UNL1       -0.4655
     24 C          66.8251   94.4581   10.8283 C.ar    1  UNL1        0.1393
     25 C          66.4418   95.8995   10.9872 C.ar    1  UNL1        0.0369
     26 C          66.6307   96.8559    9.8471 C.ar    1  UNL1        0.0031
     27 C          67.2030   96.3708    8.5482 C.ar    1  UNL1        0.0002
     28 C          67.5863   94.9293    8.3893 C.ar    1  UNL1        0.0031
     29 C          67.3974   93.9730    9.5293 C.ar    1  UNL1        0.0369
@<TRIPOS>BOND
     1     1     2    2
     2     2    12    1
     3    12    13   ar
     4    13    14   ar
     5    14    15   ar
     6    15    16   ar
     7    16    17   ar
     8    17    18   ar
     9    18    19   ar
    10    19    20   ar
    11     2     3   am
    12     3     4    1
    13     4     5    1
    14     5     6    1
    15     6     7   ar
    16     7     8   ar
    17     8    22    1
    18    22    23    1
    19    23    24    1
    20    24    25   ar
    21    25    26   ar
    22    26    27   ar
    23    27    28   ar
    24    28    29   ar
    25     8     9   ar
    26     9    10   ar
    27    10    11    1
    28    20    12   ar
    29    11     3    1
    30    20    15    1
    31    10     6   ar
    32    29    24   ar
    33    16    21    1
@<TRIPOS>MOLECULE
*****
 29 33 0 0 0
SMALL
GASTEIGER

@<TRIPOS>ATOM
      1 O          65.3610   92.2396   11.1288 O.2     1  UNL1       -0.2682
      2 C          64.5289   91.6325   12.2192 C.2     1  UNL1        0.2690
      3 N          63.3186   90.8167   11.8730 N.am    1  UNL1       -0.2673
      4 C          62.4864   90.2096   12.9634 C.3     1  UNL1        0.1006
      5 C          61.2762   89.3938   12.6173 C.3     1  UNL1        0.0703
      6 C          60.8982   89.1851   11.1808 C.ar    1  UNL1        0.0955
      7 N          59.7689   88.4349   10.5390 N.ar    1  UNL1       -0.2136
      8 C          59.9032   88.5783    9.0519 C.ar    1  UNL1        0.2500
      9 O          61.1154   89.4172    8.7746 O.2     1  UNL1       -0.4379
     10 C          61.7304   89.7921   10.0905 C.ar    1  UNL1        0.1580
     11 C          62.9406   90.6080   10.4365 C.3     1  UNL1        0.1598
     12 C          64.9069   91.8413   13.6557 C.ar    1  UNL1        0.1591
     13 N          63.9634   91.8616   14.8217 N.ar    1  UNL1       -0.1419
     14 N          64.7682   92.0992   16.0650 N.ar    1  UNL1       -0.1302
     15 C          66.2090   92.2257   15.6674 C.ar    1  UNL1        0.1637
     16 N          67.4540   92.4655   16.4689 N.ar    1  UNL1       -0.3360
     17 C          68.7847   92.5458   15.7814 C.ar    1  UNL1        0.0735
     18 C          68.8704   92.3864   14.2924 C.ar    1  UNL1        0.0186
     19 C          67.6254   92.1466   13.4909 C.ar    1  UNL1        0.0063
     20 C          66.2947   92.0663   14.1784 C.ar    1  UNL1        0.0596
     21 H          67.3978   92.5701   17.4462 H       1  UNL1        0.1675
     22 C          58.9862   87.9868    8.0227 C.3     1  UNL1        0.2895
     23 O          59.1327   86.5475    7.6263 O.3     1  UNL1       -0.4655
     24 C          60.4880   85.9048    7.6231 C.ar    1  UNL1        0.1393
     25 C          61.3795   86.0282    8.8231 C.ar    1  UNL1        0.0369
     26 C          62.7348   85.3854    8.8198 C.ar    1  UNL1        0.0031
     27 C          63.1987   84.6194    7.6165 C.ar    1  UNL1        0.0002
     28 C          62.3073   84.4961    6.4165 C.ar    1  UNL1        0.0031
     29 C          60.9520   85.1388    6.4197 C.ar    1  UNL1        0.0369
@<TRIPOS>BOND
     1     1     2    2
     2     2    12    1
     3    12    13   ar
     4    13    14   ar
     5    14    15   ar
     6    15    16   ar
     7    16    17   ar
     8    17    18   ar
     9    18    19   ar
    10    19    20   ar
    11     2     3   am
    12     3     4    1
    13     4     5    1
    14     5     6    1
    15     6     7   ar
    16     7     8   ar
    17     8    22    1
    18    22    23    1
    19    23    24    1
    20    24    25   ar
    21    25    26   ar
    22    26    27   ar
    23    27    28   ar
    24    28    29   ar
    25     8     9   ar
    26     9    10   ar
    27    10    11    1
    28    20    12   ar
    29    11     3    1
    30    20    15    1
    31    10     6   ar
    32    29    24   ar
    33    16    21    1
@<TRIPOS>MOLECULE
*****
 29 33 0 0 0
SMALL
GASTEIGER

@<TRIPOS>ATOM
      1 O          62.1075   85.6625    9.9461 O.2     1  UNL1       -0.2682
      2 C          62.7897   84.9908   11.1008 C.2     1  UNL1        0.2690
      3 N          63.2105   85.7958   12.2946 N.am    1  UNL1       -0.2673
      4 C          63.8927   85.1243   13.4494 C.3     1  UNL1        0.1006
      5 C          64.3135   85.9291   14.6431 C.3     1  UNL1        0.0703
      6 C          64.0520   87.4056   14.6821 C.ar    1  UNL1        0.0955
      7 N          64.3503   88.4508   15.7158 N.ar    1  UNL1       -0.2136
      8 C          63.8525   89.7684   15.1998 C.ar    1  UNL1        0.2500
      9 O          63.2465   89.5375   13.8473 O.2     1  UNL1       -0.4379
     10 C          63.3698   88.0772   13.5273 C.ar    1  UNL1        0.1580
     11 C          62.9490   87.2724   12.3335 C.3     1  UNL1        0.1598
     12 C          63.0511   83.5143   11.0619 C.ar    1  UNL1        0.1591
     13 N          63.7994   82.7794    9.9895 N.ar    1  UNL1       -0.1419
     14 N          63.8209   81.3244   10.3534 N.ar    1  UNL1       -0.1302
     15 C          63.0860   81.1600   11.6506 C.ar    1  UNL1        0.1637
     16 N          62.7885   79.9528   12.4897 N.ar    1  UNL1       -0.3360
     17 C          62.0153   80.0991   13.7667 C.ar    1  UNL1        0.0735
     18 C          61.5396   81.4526   14.2046 C.ar    1  UNL1        0.0186
     19 C          61.8371   82.6598   13.3655 C.ar    1  UNL1        0.0063
     20 C          62.6102   82.5135   12.0885 C.ar    1  UNL1        0.0596
     21 H          63.1008   79.0645   12.2024 H       1  UNL1        0.1675
     22 C          63.9445   91.0856   15.9116 C.3     1  UNL1        0.2895
     23 O          64.5935   92.2583   15.2380 O.3     1  UNL1       -0.4655
     24 C          66.0818   92.2879   15.0534 C.ar    1  UNL1        0.1393
     25 C          66.6834   91.8726   13.7437 C.ar    1  UNL1        0.0369
     26 C          68.1718   91.9022   13.5591 C.ar    1  UNL1        0.0031
     27 C          69.0584   92.3470   14.6842 C.ar    1  UNL1        0.0002
     28 C          68.4567   92.7623   15.9940 C.ar    1  UNL1        0.0031
     29 C          66.9684   92.7327   16.1786 C.ar    1  UNL1        0.0369
@<TRIPOS>BOND
     1     1     2    2
     2     2    12    1
     3    12    13   ar
     4    13    14   ar
     5    14    15   ar
     6    15    16   ar
     7    16    17   ar
     8    17    18   ar
     9    18    19   ar
    10    19    20   ar
    11     2     3   am
    12     3     4    1
    13     4     5    1
    14     5     6    1
    15     6     7   ar
    16     7     8   ar
    17     8    22    1
    18    22    23    1
    19    23    24    1
    20    24    25   ar
    21    25    26   ar
    22    26    27   ar
    23    27    28   ar
    24    28    29   ar
    25     8     9   ar
    26     9    10   ar
    27    10    11    1
    28    20    12   ar
    29    11     3    1
    30    20    15    1
    31    10     6   ar
    32    29    24   ar
    33    16    21    1
@<TRIPOS>MOLECULE
*****
 29 33 0 0 0
SMALL
GASTEIGER

@<TRIPOS>ATOM
      1 O          60.1054   95.8926   -0.0059 O.2     1  UNL1       -0.2682
      2 C          61.3353   95.0944    0.3105 C.2     1  UNL1        0.2690
      3 N          61.3014   94.0654    1.4015 N.am    1  UNL1       -0.2673
      4 C          62.5313   93.2671    1.7180 C.3     1  UNL1        0.1006
      5 C          62.4976   92.2381    2.8088 C.3     1  UNL1        0.0703
      6 C          61.2338   92.0074    3.5832 C.ar    1  UNL1        0.0955
      7 N          60.9014   91.0690    4.7052 N.ar    1  UNL1       -0.2136
      8 C          59.4660   91.2873    5.0822 C.ar    1  UNL1        0.2500
      9 O          58.9113   92.3606    4.1932 O.2     1  UNL1       -0.4379
     10 C          60.0039   92.8056    3.2667 C.ar    1  UNL1        0.1580
     11 C          60.0377   93.8346    2.1759 C.3     1  UNL1        0.1598
     12 C          62.5990   95.3252   -0.4639 C.ar    1  UNL1        0.1591
     13 N          63.7238   96.2341   -0.0653 N.ar    1  UNL1       -0.1419
     14 N          64.7797   96.1581   -1.1279 N.ar    1  UNL1       -0.1302
     15 C          64.3076   95.2023   -2.1832 C.ar    1  UNL1        0.1637
     16 N          64.9309   94.7342   -3.4647 N.ar    1  UNL1       -0.3360
     17 C          64.2063   93.7513   -4.3359 C.ar    1  UNL1        0.0735
     18 C          62.8585   93.2365   -3.9254 C.ar    1  UNL1        0.0186
     19 C          62.2353   93.7046   -2.6439 C.ar    1  UNL1        0.0063
     20 C          62.9599   94.6875   -1.7727 C.ar    1  UNL1        0.0596
     21 H          65.8155   95.0721   -3.7341 H       1  UNL1        0.1675
     22 C          58.7169   90.5599    6.1591 C.3     1  UNL1        0.2895
     23 O          58.8365   89.0696    6.2803 O.3     1  UNL1       -0.4655
     24 C          59.5198   88.4665    7.4717 C.ar    1  UNL1        0.1393
     25 C          60.1156   89.3543    8.5237 C.ar    1  UNL1        0.0369
     26 C          60.7990   88.7511    9.7151 C.ar    1  UNL1        0.0031
     27 C          60.8864   87.2603    9.8544 C.ar    1  UNL1        0.0002
     28 C          60.2907   86.3724    8.8024 C.ar    1  UNL1        0.0031
     29 C          59.6073   86.9755    7.6111 C.ar    1  UNL1        0.0369
@<TRIPOS>BOND
     1     1     2    2
     2     2    12    1
     3    12    13   ar
     4    13    14   ar
     5    14    15   ar
     6    15    16   ar
     7    16    17   ar
     8    17    18   ar
     9    18    19   ar
    10    19    20   ar
    11     2     3   am
    12     3     4    1
    13     4     5    1
    14     5     6    1
    15     6     7   ar
    16     7     8   ar
    17     8    22    1
    18    22    23    1
    19    23    24    1
    20    24    25   ar
    21    25    26   ar
    22    26    27   ar
    23    27    28   ar
    24    28    29   ar
    25     8     9   ar
    26     9    10   ar
    27    10    11    1
    28    20    12   ar
    29    11     3    1
    30    20    15    1
    31    10     6   ar
    32    29    24   ar
    33    16    21    1
@<TRIPOS>MOLECULE
*****
 29 33 0 0 0
SMALL
GASTEIGER

@<TRIPOS>ATOM
      1 O          64.2443   89.8641   12.6627 O.2     1  UNL1       -0.2682
      2 C          64.2085   89.6722   14.1499 C.2     1  UNL1        0.2690
      3 N          63.8222   88.3418   14.7253 N.am    1  UNL1       -0.2673
      4 C          63.7864   88.1498   16.2125 C.3     1  UNL1        0.1006
      5 C          63.4002   86.8195   16.7879 C.3     1  UNL1        0.0703
      6 C          63.0498   85.6812   15.8760 C.ar    1  UNL1        0.0955
      7 N          62.6342   84.2664   16.1509 N.ar    1  UNL1       -0.2136
      8 C          62.4133   83.5840   14.8335 C.ar    1  UNL1        0.2500
      9 O          62.6922   84.5770   13.7444 O.2     1  UNL1       -0.4379
     10 C          63.0856   85.8732   14.3888 C.ar    1  UNL1        0.1580
     11 C          63.4719   87.2035   13.8134 C.3     1  UNL1        0.1598
     12 C          64.5589   90.8105   15.0618 C.ar    1  UNL1        0.1591
     13 N          63.6639   91.4130   16.1039 N.ar    1  UNL1       -0.1419
     14 N          64.4177   92.5210   16.7777 N.ar    1  UNL1       -0.1302
     15 C          65.7785   92.6033   16.1521 C.ar    1  UNL1        0.1637
     16 N          66.9494   93.5043   16.4111 N.ar    1  UNL1       -0.3360
     17 C          68.2076   93.3481   15.6096 C.ar    1  UNL1        0.0735
     18 C          68.2949   92.2910   14.5490 C.ar    1  UNL1        0.0186
     19 C          67.1239   91.3900   14.2900 C.ar    1  UNL1        0.0063
     20 C          65.8658   91.5462   15.0915 C.ar    1  UNL1        0.0596
     21 H          66.8921   94.1981   17.1072 H       1  UNL1        0.1675
     22 C          61.9880   82.1586   14.6393 C.3     1  UNL1        0.2895
     23 O          62.9747   81.1422   14.1460 O.3     1  UNL1       -0.4655
     24 C          62.9939   80.7575   12.6963 C.ar    1  UNL1        0.1393
     25 C          62.6389   79.3589   12.2867 C.ar    1  UNL1        0.0369
     26 C          62.6582   78.9743   10.8369 C.ar    1  UNL1        0.0031
     27 C          63.0323   79.9882    9.7969 C.ar    1  UNL1        0.0002
     28 C          63.3873   81.3869   10.2065 C.ar    1  UNL1        0.0031
     29 C          63.3681   81.7715   11.6562 C.ar    1  UNL1        0.0369
@<TRIPOS>BOND
     1     1     2    2
     2     2    12    1
     3    12    13   ar
     4    13    14   ar
     5    14    15   ar
     6    15    16   ar
     7    16    17   ar
     8    17    18   ar
     9    18    19   ar
    10    19    20   ar
    11     2     3   am
    12     3     4    1
    13     4     5    1
    14     5     6    1
    15     6     7   ar
    16     7     8   ar
    17     8    22    1
    18    22    23    1
    19    23    24    1
    20    24    25   ar
    21    25    26   ar
    22    26    27   ar
    23    27    28   ar
    24    28    29   ar
    25     8     9   ar
    26     9    10   ar
    27    10    11    1
    28    20    12   ar
    29    11     3    1
    30    20    15    1
    31    10     6   ar
    32    29    24   ar
    33    16    21    1
@<TRIPOS>MOLECULE
*****
 29 33 0 0 0
SMALL
GASTEIGER

@<TRIPOS>ATOM
      1 O          63.0970   90.2409   11.1074 O.2     1  UNL1       -0.2682
      2 C          63.8639   90.1952   12.3956 C.2     1  UNL1        0.2690
      3 N          63.8733   88.9411   13.2187 N.am    1  UNL1       -0.2673
      4 C          64.6403   88.8952   14.5070 C.3     1  UNL1        0.1006
      5 C          64.6497   87.6413   15.3300 C.3     1  UNL1        0.0703
      6 C          63.8922   86.4331   14.8647 C.ar    1  UNL1        0.0955
      7 N          63.7184   85.0670   15.4593 N.ar    1  UNL1       -0.2136
      8 C          62.8441   84.2685   14.5384 C.ar    1  UNL1        0.2500
      9 O          62.4774   85.1411   13.3748 O.2     1  UNL1       -0.4379
     10 C          63.1252   86.4790   13.5765 C.ar    1  UNL1        0.1580
     11 C          63.1158   87.7329   12.7534 C.3     1  UNL1        0.1598
     12 C          64.6214   91.4033   12.8609 C.ar    1  UNL1        0.1591
     13 N          64.8369   91.8134   14.2876 N.ar    1  UNL1       -0.1419
     14 N          65.6452   93.0771   14.2895 N.ar    1  UNL1       -0.1302
     15 C          65.9292   93.4479   12.8641 C.ar    1  UNL1        0.1637
     16 N          66.6822   94.5938   12.2561 N.ar    1  UNL1       -0.3360
     17 C          66.8025   94.7053   10.7651 C.ar    1  UNL1        0.0735
     18 C          66.1698   93.6709    9.8822 C.ar    1  UNL1        0.0186
     19 C          65.4168   92.5249   10.4902 C.ar    1  UNL1        0.0063
     20 C          65.2965   92.4135   11.9811 C.ar    1  UNL1        0.0596
     21 H          67.0975   95.2728   12.8356 H       1  UNL1        0.1675
     22 C          62.4121   82.8469   14.7451 C.3     1  UNL1        0.2895
     23 O          63.2955   81.7217   14.2939 O.3     1  UNL1       -0.4655
     24 C          63.2393   81.2480   12.8718 C.ar    1  UNL1        0.1393
     25 C          63.7245   82.1371   11.7655 C.ar    1  UNL1        0.0369
     26 C          63.6683   81.6633   10.3433 C.ar    1  UNL1        0.0031
     27 C          63.1270   80.3006   10.0276 C.ar    1  UNL1        0.0002
     28 C          62.6419   79.4115   11.1339 C.ar    1  UNL1        0.0031
     29 C          62.6980   79.8852   12.5560 C.ar    1  UNL1        0.0369
@<TRIPOS>BOND
     1     1     2    2
     2     2    12    1
     3    12    13   ar
     4    13    14   ar
     5    14    15   ar
     6    15    16   ar
     7    16    17   ar
     8    17    18   ar
     9    18    19   ar
    10    19    20   ar
    11     2     3   am
    12     3     4    1
    13     4     5    1
    14     5     6    1
    15     6     7   ar
    16     7     8   ar
    17     8    22    1
    18    22    23    1
    19    23    24    1
    20    24    25   ar
    21    25    26   ar
    22    26    27   ar
    23    27    28   ar
    24    28    29   ar
    25     8     9   ar
    26     9    10   ar
    27    10    11    1
    28    20    12   ar
    29    11     3    1
    30    20    15    1
    31    10     6   ar
    32    29    24   ar
    33    16    21    1
