@<TRIPOS>MOLECULE
*****
 34 36 0 0 0
SMALL
GASTEIGER

@<TRIPOS>ATOM
      1 C          65.7405   93.8093   11.4321 C.ar    1  UNL1        0.0697
      2 C          64.6605   92.8764   10.9702 C.ar    1  UNL1        0.0073
      3 C          64.2402   91.7273   11.8380 C.ar    1  UNL1        0.0147
      4 C          64.8998   91.5112   13.1677 C.ar    1  UNL1        0.0518
      5 C          65.9797   92.4441   13.6296 C.ar    1  UNL1        0.0849
      6 C          66.4001   93.5931   12.7618 C.ar    1  UNL1        0.0111
      7 N          64.4795   90.3622   14.0355 N.pl3   1  UNL1       -0.3041
      8 C          64.5482   88.9596   13.5081 C.3     1  UNL1        0.1123
      9 C          64.1279   87.8106   14.3759 C.3     1  UNL1        0.1152
     10 N          63.6388   88.0641   15.7710 N.am    1  UNL1       -0.2714
     11 C          63.2185   86.9151   16.6388 C.2     1  UNL1        0.2648
     12 O          62.7294   87.1685   18.0340 O.2     1  UNL1       -0.2683
     13 C          63.5701   89.4666   16.2984 C.3     1  UNL1        0.1152
     14 C          63.9904   90.6156   15.4306 C.3     1  UNL1        0.1123
     15 C          63.2872   85.5125   16.1114 C.ar    1  UNL1        0.1110
     16 C          62.1199   84.5992   15.8806 C.ar    1  UNL1        0.0231
     17 C          62.6466   83.2992   15.3487 C.ar    1  UNL1        0.0201
     18 C          64.1394   83.4092   15.2509 C.ar    1  UNL1        0.0725
     19 N          64.5353   84.7770   15.7223 N.ar    1  UNL1       -0.3484
     20 H          65.4532   85.1301   15.7682 H       1  UNL1        0.1661
     21 N          66.2142   94.7927    9.0745 N.am    1  UNL1       -0.1708
     22 C          66.1608   94.9583   10.5643 C.2     1  UNL1        0.3078
     23 O          66.5278   96.2729   11.1864 O.2     1  UNL1       -0.2516
     24 H          65.9734   93.9298    8.6662 H       1  UNL1        0.2545
     25 N          65.7563   96.3878    7.0755 N.pl3   1  UNL1       -0.1313
     26 C          66.6345   95.9417    8.2067 C.2     1  UNL1        0.3751
     27 N          67.9332   96.6447    8.4702 N.pl3   1  UNL1       -0.2906
     28 H          66.0322   97.1419    6.5060 H       1  UNL1        0.3060
     29 H          68.2091   97.3988    7.9007 H       1  UNL1        0.2545
     30 H          68.5097   96.3519    9.2126 H       1  UNL1        0.2545
     31 C          66.6394   92.2279   14.9594 C.3     1  UNL1        0.4197
     32 F          67.2991   92.0118   16.2891 F       1  UNL1       -0.1658
     33 F          65.7185   93.2362   15.5801 F       1  UNL1       -0.1658
     34 F          67.5603   91.2197   14.3386 F       1  UNL1       -0.1658
@<TRIPOS>BOND
     1    25    26    2
     2    26    27    1
     3    26    21    1
     4    21    22   am
     5    22    23    2
     6    22     1    1
     7     1     2   ar
     8     2     3   ar
     9     3     4   ar
    10     4     7    1
    11     7     8    1
    12     8     9    1
    13     9    10    1
    14    10    11   am
    15    11    12    2
    16    11    15    1
    17    15    16   ar
    18    16    17   ar
    19    17    18   ar
    20    18    19   ar
    21    10    13    1
    22    13    14    1
    23     4     5   ar
    24     5    31    1
    25    31    32    1
    26    31    33    1
    27    31    34    1
    28     5     6   ar
    29     6     1   ar
    30    14     7    1
    31    19    15   ar
    32    25    28    1
    33    27    29    1
    34    27    30    1
    35    21    24    1
    36    19    20    1
@<TRIPOS>MOLECULE
*****
 34 36 0 0 0
SMALL
GASTEIGER

@<TRIPOS>ATOM
      1 C          65.6379   93.6889   11.5480 C.ar    1  UNL1        0.0697
      2 C          66.2971   93.4458   12.8733 C.ar    1  UNL1        0.0073
      3 C          65.8854   92.2719   13.7116 C.ar    1  UNL1        0.0147
      4 C          64.8147   91.3412   13.2246 C.ar    1  UNL1        0.0518
      5 C          64.1556   91.5843   11.8993 C.ar    1  UNL1        0.0849
      6 C          64.5672   92.7581   11.0610 C.ar    1  UNL1        0.0111
      7 N          64.4030   90.1674   14.0629 N.pl3   1  UNL1       -0.3041
      8 C          64.4813   88.7794   13.4997 C.3     1  UNL1        0.1123
      9 C          64.0697   87.6056   14.3380 C.3     1  UNL1        0.1152
     10 N          63.5798   87.8198   15.7395 N.am    1  UNL1       -0.2714
     11 C          63.1682   86.6460   16.5778 C.2     1  UNL1        0.2648
     12 O          62.6783   86.8602   17.9792 O.2     1  UNL1       -0.2683
     13 C          63.5015   89.2078   16.3026 C.3     1  UNL1        0.1152
     14 C          63.9132   90.3816   15.4643 C.3     1  UNL1        0.1123
     15 C          63.2464   85.2580   16.0146 C.ar    1  UNL1        0.1110
     16 C          62.0813   84.3993   15.6208 C.ar    1  UNL1        0.0231
     17 C          62.6183   83.0954   15.1091 C.ar    1  UNL1        0.0201
     18 C          64.1154   83.1483   15.1868 C.ar    1  UNL1        0.0725
     19 N          64.5036   84.4848   15.7464 N.ar    1  UNL1       -0.3484
     20 H          65.4222   84.7993   15.9091 H       1  UNL1        0.1661
     21 N          66.1446   94.7233    9.2193 N.am    1  UNL1       -0.1708
     22 C          66.0496   94.8627   10.7097 C.2     1  UNL1        0.3078
     23 O          66.3661   96.1758   11.3619 O.2     1  UNL1       -0.2516
     24 H          65.9368   93.8614    8.7912 H       1  UNL1        0.2545
     25 N          67.8530   96.5984    8.6577 N.pl3   1  UNL1       -0.1313
     26 C          66.5562   95.8971    8.3810 C.2     1  UNL1        0.3751
     27 N          65.6710   96.3697    7.2660 N.pl3   1  UNL1       -0.2906
     28 H          68.1232   97.3688    8.1074 H       1  UNL1        0.3060
     29 H          65.9412   97.1401    6.7157 H       1  UNL1        0.2545
     30 H          64.8199   95.9094    7.0844 H       1  UNL1        0.2545
     31 C          63.0847   90.6536   11.4123 C.3     1  UNL1        0.4197
     32 F          62.0140   89.7229   10.9252 F       1  UNL1       -0.1658
     33 F          62.2696   90.9511   12.6357 F       1  UNL1       -0.1658
     34 F          63.8999   90.3561   10.1888 F       1  UNL1       -0.1658
@<TRIPOS>BOND
     1    25    26    2
     2    26    27    1
     3    26    21    1
     4    21    22   am
     5    22    23    2
     6    22     1    1
     7     1     2   ar
     8     2     3   ar
     9     3     4   ar
    10     4     7    1
    11     7     8    1
    12     8     9    1
    13     9    10    1
    14    10    11   am
    15    11    12    2
    16    11    15    1
    17    15    16   ar
    18    16    17   ar
    19    17    18   ar
    20    18    19   ar
    21    10    13    1
    22    13    14    1
    23     4     5   ar
    24     5    31    1
    25    31    32    1
    26    31    33    1
    27    31    34    1
    28     5     6   ar
    29     6     1   ar
    30    14     7    1
    31    19    15   ar
    32    25    28    1
    33    27    29    1
    34    27    30    1
    35    21    24    1
    36    19    20    1
@<TRIPOS>MOLECULE
*****
 34 36 0 0 0
SMALL
GASTEIGER

@<TRIPOS>ATOM
      1 C          65.3811   92.3262   13.0441 C.ar    1  UNL1        0.0697
      2 C          66.1541   91.6130   14.1136 C.ar    1  UNL1        0.0073
      3 C          65.7325   90.2435   14.5571 C.ar    1  UNL1        0.0147
      4 C          64.5379   89.5871   13.9310 C.ar    1  UNL1        0.0518
      5 C          63.7648   90.3003   12.8616 C.ar    1  UNL1        0.0849
      6 C          64.1865   91.6698   12.4181 C.ar    1  UNL1        0.0111
      7 N          64.1163   88.2176   14.3745 N.pl3   1  UNL1       -0.3041
      8 C          64.0725   87.0897   13.3866 C.3     1  UNL1        0.1123
      9 C          63.6509   85.7202   13.8301 C.3     1  UNL1        0.1152
     10 N          63.2730   85.4786   15.2614 N.am    1  UNL1       -0.2714
     11 C          62.8514   84.1090   15.7049 C.2     1  UNL1        0.2648
     12 O          62.4735   83.8674   17.1362 O.2     1  UNL1       -0.2683
     13 C          63.3168   86.6064   16.2493 C.3     1  UNL1        0.1152
     14 C          63.7384   87.9759   15.8058 C.3     1  UNL1        0.1123
     15 C          62.8077   82.9812   14.7170 C.ar    1  UNL1        0.1110
     16 C          63.9037   82.5979   13.7673 C.ar    1  UNL1        0.0231
     17 C          63.4336   81.4183   12.9686 C.ar    1  UNL1        0.0201
     18 C          62.0470   81.0726   13.4248 C.ar    1  UNL1        0.0725
     19 N          61.6602   82.0384   14.5053 N.ar    1  UNL1       -0.3484
     20 H          60.8036   82.0514   14.9904 H       1  UNL1        0.1661
     21 N          65.5284   94.1470   11.1968 N.am    1  UNL1       -0.1708
     22 C          65.8027   93.6957   12.6007 C.2     1  UNL1        0.3078
     23 O          66.4987   94.6139   13.5611 O.2     1  UNL1       -0.2516
     24 H          65.0716   93.5444   10.5664 H       1  UNL1        0.2545
     25 N          65.6189   96.7127   11.5956 N.pl3   1  UNL1       -0.1313
     26 C          65.9500   95.5165   10.7533 C.2     1  UNL1        0.3751
     27 N          66.7028   95.6899    9.4675 N.pl3   1  UNL1       -0.2906
     28 H          65.8956   97.6115   11.3046 H       1  UNL1        0.3060
     29 H          66.9796   96.5887    9.1764 H       1  UNL1        0.2545
     30 H          66.9202   94.9048    8.9146 H       1  UNL1        0.2545
     31 C          62.5701   89.6439   12.2355 C.3     1  UNL1        0.4197
     32 F          61.3754   88.9876   11.6095 F       1  UNL1       -0.1658
     33 F          63.3641   89.3875   10.9890 F       1  UNL1       -0.1658
     34 F          61.7761   89.9003   13.4820 F       1  UNL1       -0.1658
@<TRIPOS>BOND
     1    25    26    2
     2    26    27    1
     3    26    21    1
     4    21    22   am
     5    22    23    2
     6    22     1    1
     7     1     2   ar
     8     2     3   ar
     9     3     4   ar
    10     4     7    1
    11     7     8    1
    12     8     9    1
    13     9    10    1
    14    10    11   am
    15    11    12    2
    16    11    15    1
    17    15    16   ar
    18    16    17   ar
    19    17    18   ar
    20    18    19   ar
    21    10    13    1
    22    13    14    1
    23     4     5   ar
    24     5    31    1
    25    31    32    1
    26    31    33    1
    27    31    34    1
    28     5     6   ar
    29     6     1   ar
    30    14     7    1
    31    19    15   ar
    32    25    28    1
    33    27    29    1
    34    27    30    1
    35    21    24    1
    36    19    20    1
@<TRIPOS>MOLECULE
*****
 34 36 0 0 0
SMALL
GASTEIGER

@<TRIPOS>ATOM
      1 C          59.8342   89.3451    7.2792 C.ar    1  UNL1        0.0697
      2 C          59.8204   87.8475    7.1967 C.ar    1  UNL1        0.0073
      3 C          60.4468   87.0305    8.2876 C.ar    1  UNL1        0.0147
      4 C          61.0871   87.7110    9.4610 C.ar    1  UNL1        0.0518
      5 C          61.1008   89.2087    9.5434 C.ar    1  UNL1        0.0849
      6 C          60.4744   90.0257    8.4526 C.ar    1  UNL1        0.0111
      7 N          61.7135   86.8940   10.5518 N.pl3   1  UNL1       -0.3041
      8 C          61.4701   85.4153   10.6154 C.3     1  UNL1        0.1123
      9 C          62.0965   84.5982   11.7062 C.3     1  UNL1        0.1152
     10 N          62.9663   85.2599   12.7336 N.am    1  UNL1       -0.2714
     11 C          63.5928   84.4429   13.8245 C.2     1  UNL1        0.2648
     12 O          64.4626   85.1046   14.8518 O.2     1  UNL1       -0.2683
     13 C          63.2097   86.7386   12.6701 C.3     1  UNL1        0.1152
     14 C          62.5833   87.5557   11.5792 C.3     1  UNL1        0.1123
     15 C          63.3494   82.9642   13.8880 C.ar    1  UNL1        0.1110
     16 C          64.2013   81.9025   13.2578 C.ar    1  UNL1        0.0231
     17 C          63.5897   80.5695   13.5732 C.ar    1  UNL1        0.0201
     18 C          62.3598   80.8075   14.3984 C.ar    1  UNL1        0.0725
     19 N          62.2113   82.2874   14.5929 N.ar    1  UNL1       -0.3484
     20 H          61.4930   82.7358   15.0951 H       1  UNL1        0.1661
     21 N          57.7208   90.3565    6.1565 N.am    1  UNL1       -0.1708
     22 C          59.2078   90.1622    6.1883 C.2     1  UNL1        0.3078
     23 O          60.0683   90.7849    5.1293 O.2     1  UNL1       -0.2516
     24 H          57.1559   89.9478    6.8516 H       1  UNL1        0.2545
     25 N          55.6017   91.2976    4.9843 N.pl3   1  UNL1       -0.1313
     26 C          57.0944   91.1736    5.0656 C.2     1  UNL1        0.3751
     27 N          57.9606   91.8666    4.0559 N.pl3   1  UNL1       -0.2906
     28 H          55.1906   91.8338    4.2683 H       1  UNL1        0.3060
     29 H          57.5495   92.4029    3.3399 H       1  UNL1        0.2545
     30 H          58.9403   91.7852    4.1093 H       1  UNL1        0.2545
     31 C          61.7411   89.8894   10.7169 C.3     1  UNL1        0.4197
     32 F          62.3812   90.5700   11.8903 F       1  UNL1       -0.1658
     33 F          63.0257   90.0020    9.9507 F       1  UNL1       -0.1658
     34 F          60.4565   89.7767   11.4830 F       1  UNL1       -0.1658
@<TRIPOS>BOND
     1    25    26    2
     2    26    27    1
     3    26    21    1
     4    21    22   am
     5    22    23    2
     6    22     1    1
     7     1     2   ar
     8     2     3   ar
     9     3     4   ar
    10     4     7    1
    11     7     8    1
    12     8     9    1
    13     9    10    1
    14    10    11   am
    15    11    12    2
    16    11    15    1
    17    15    16   ar
    18    16    17   ar
    19    17    18   ar
    20    18    19   ar
    21    10    13    1
    22    13    14    1
    23     4     5   ar
    24     5    31    1
    25    31    32    1
    26    31    33    1
    27    31    34    1
    28     5     6   ar
    29     6     1   ar
    30    14     7    1
    31    19    15   ar
    32    25    28    1
    33    27    29    1
    34    27    30    1
    35    21    24    1
    36    19    20    1
@<TRIPOS>MOLECULE
*****
 34 36 0 0 0
SMALL
GASTEIGER

@<TRIPOS>ATOM
      1 C          59.3232   89.1168    7.0400 C.ar    1  UNL1        0.0697
      2 C          59.3328   87.6555    6.7017 C.ar    1  UNL1        0.0073
      3 C          60.1118   86.6944    7.5499 C.ar    1  UNL1        0.0147
      4 C          60.8811   87.1945    8.7364 C.ar    1  UNL1        0.0518
      5 C          60.8715   88.6558    9.0747 C.ar    1  UNL1        0.0849
      6 C          60.0926   89.6169    8.2265 C.ar    1  UNL1        0.0111
      7 N          61.6601   86.2334    9.5846 N.pl3   1  UNL1       -0.3041
      8 C          61.4761   86.2275   11.0732 C.3     1  UNL1        0.1123
      9 C          62.2551   85.2664   11.9214 C.3     1  UNL1        0.1152
     10 N          63.2181   84.3112   11.2810 N.am    1  UNL1       -0.2714
     11 C          63.9971   83.3501   12.1292 C.2     1  UNL1        0.2648
     12 O          64.9601   82.3949   11.4887 O.2     1  UNL1       -0.2683
     13 C          63.4021   84.3171    9.7923 C.3     1  UNL1        0.1152
     14 C          62.6231   85.2782    8.9441 C.3     1  UNL1        0.1123
     15 C          63.8130   83.3441   13.6178 C.ar    1  UNL1        0.1110
     16 C          62.6686   82.7228   14.3623 C.ar    1  UNL1        0.0231
     17 C          62.8894   82.9532   15.8280 C.ar    1  UNL1        0.0201
     18 C          64.1704   83.7169   15.9894 C.ar    1  UNL1        0.0725
     19 N          64.7412   83.9585   14.6234 N.ar    1  UNL1       -0.3484
     20 H          65.5781   84.4365   14.4222 H       1  UNL1        0.1661
     21 N          59.2644   91.0868    5.3472 N.am    1  UNL1       -0.1708
     22 C          58.5442   90.0779    6.1918 C.2     1  UNL1        0.3078
     23 O          57.0450   90.0301    6.1881 O.2     1  UNL1       -0.2516
     24 H          60.2484   91.1182    5.3496 H       1  UNL1        0.2545
     25 N          57.1281   92.5085    4.9411 N.pl3   1  UNL1       -0.1313
     26 C          58.4855   92.0480    4.4990 C.2     1  UNL1        0.3751
     27 N          59.0639   92.5485    3.2087 N.pl3   1  UNL1       -0.2906
     28 H          56.6169   93.1393    4.3844 H       1  UNL1        0.3060
     29 H          58.5526   93.1793    2.6520 H       1  UNL1        0.2545
     30 H          59.9548   92.2462    2.9185 H       1  UNL1        0.2545
     31 C          61.6409   89.1561   10.2612 C.3     1  UNL1        0.4197
     32 F          62.4103   89.6563   11.4477 F       1  UNL1       -0.1658
     33 F          60.3559   89.3676   11.0054 F       1  UNL1       -0.1658
     34 F          62.9260   88.9445    9.5171 F       1  UNL1       -0.1658
@<TRIPOS>BOND
     1    25    26    2
     2    26    27    1
     3    26    21    1
     4    21    22   am
     5    22    23    2
     6    22     1    1
     7     1     2   ar
     8     2     3   ar
     9     3     4   ar
    10     4     7    1
    11     7     8    1
    12     8     9    1
    13     9    10    1
    14    10    11   am
    15    11    12    2
    16    11    15    1
    17    15    16   ar
    18    16    17   ar
    19    17    18   ar
    20    18    19   ar
    21    10    13    1
    22    13    14    1
    23     4     5   ar
    24     5    31    1
    25    31    32    1
    26    31    33    1
    27    31    34    1
    28     5     6   ar
    29     6     1   ar
    30    14     7    1
    31    19    15   ar
    32    25    28    1
    33    27    29    1
    34    27    30    1
    35    21    24    1
    36    19    20    1
@<TRIPOS>MOLECULE
*****
 34 36 0 0 0
SMALL
GASTEIGER

@<TRIPOS>ATOM
      1 C          60.3619   91.5511    4.3078 C.ar    1  UNL1        0.0697
      2 C          61.7996   91.2087    4.0513 C.ar    1  UNL1        0.0073
      3 C          62.5451   91.8861    2.9399 C.ar    1  UNL1        0.0147
      4 C          61.8530   92.9059    2.0849 C.ar    1  UNL1        0.0518
      5 C          60.4153   93.2483    2.3414 C.ar    1  UNL1        0.0849
      6 C          59.6698   92.5708    3.4528 C.ar    1  UNL1        0.0111
      7 N          62.5986   93.5833    0.9735 N.pl3   1  UNL1       -0.3041
      8 C          62.3454   93.1863   -0.4506 C.3     1  UNL1        0.1123
      9 C          63.0909   93.8637   -1.5620 C.3     1  UNL1        0.1152
     10 N          64.0897   94.9382   -1.2493 N.am    1  UNL1       -0.2714
     11 C          64.8353   95.6156   -2.3607 C.2     1  UNL1        0.2648
     12 O          65.8341   96.6901   -2.0479 O.2     1  UNL1       -0.2683
     13 C          64.3430   95.3352    0.1749 C.3     1  UNL1        0.1152
     14 C          63.5974   94.6578    1.2863 C.3     1  UNL1        0.1123
     15 C          64.5821   95.2186   -3.7848 C.ar    1  UNL1        0.1110
     16 C          63.8740   96.0442   -4.8177 C.ar    1  UNL1        0.0231
     17 C          63.8468   95.2620   -6.0975 C.ar    1  UNL1        0.0201
     18 C          64.5380   93.9529   -5.8554 C.ar    1  UNL1        0.0725
     19 N          64.9924   93.9261   -4.4261 N.ar    1  UNL1       -0.3484
     20 H          65.4753   93.1895   -3.9862 H       1  UNL1        0.1661
     21 N          60.3498   89.9925    6.3864 N.am    1  UNL1       -0.1708
     22 C          59.6163   90.8736    5.4192 C.2     1  UNL1        0.3078
     23 O          58.1372   91.0773    5.5633 O.2     1  UNL1       -0.2516
     24 H          61.3206   89.8588    6.2918 H       1  UNL1        0.2545
     25 N          58.5255   88.3222    7.1811 N.pl3   1  UNL1       -0.1313
     26 C          59.6042   89.3151    7.4978 C.2     1  UNL1        0.3751
     27 N          59.9375   89.6307    8.9259 N.pl3   1  UNL1       -0.2906
     28 H          58.0361   87.8776    7.9106 H       1  UNL1        0.3060
     29 H          59.4481   89.1861    9.6554 H       1  UNL1        0.2545
     30 H          60.6455   90.2824    9.1337 H       1  UNL1        0.2545
     31 C          59.7231   94.2681    1.4864 C.3     1  UNL1        0.4197
     32 F          59.0310   95.2878    0.6315 F       1  UNL1       -0.1658
     33 F          60.2880   95.3658    2.3384 F       1  UNL1       -0.1658
     34 F          59.1583   93.1704    0.6345 F       1  UNL1       -0.1658
@<TRIPOS>BOND
     1    25    26    2
     2    26    27    1
     3    26    21    1
     4    21    22   am
     5    22    23    2
     6    22     1    1
     7     1     2   ar
     8     2     3   ar
     9     3     4   ar
    10     4     7    1
    11     7     8    1
    12     8     9    1
    13     9    10    1
    14    10    11   am
    15    11    12    2
    16    11    15    1
    17    15    16   ar
    18    16    17   ar
    19    17    18   ar
    20    18    19   ar
    21    10    13    1
    22    13    14    1
    23     4     5   ar
    24     5    31    1
    25    31    32    1
    26    31    33    1
    27    31    34    1
    28     5     6   ar
    29     6     1   ar
    30    14     7    1
    31    19    15   ar
    32    25    28    1
    33    27    29    1
    34    27    30    1
    35    21    24    1
    36    19    20    1
@<TRIPOS>MOLECULE
*****
 34 36 0 0 0
SMALL
GASTEIGER

@<TRIPOS>ATOM
      1 C          59.8206   89.2664    7.3000 C.ar    1  UNL1        0.0697
      2 C          59.9224   89.8188    8.6908 C.ar    1  UNL1        0.0073
      3 C          60.5595   89.0035    9.7768 C.ar    1  UNL1        0.0147
      4 C          61.0948   87.6359    9.4720 C.ar    1  UNL1        0.0518
      5 C          60.9930   87.0835    8.0812 C.ar    1  UNL1        0.0849
      6 C          60.3559   87.8987    6.9952 C.ar    1  UNL1        0.0111
      7 N          61.7319   86.8206   10.5580 N.pl3   1  UNL1       -0.3041
      8 C          61.4851   85.3428   10.6294 C.3     1  UNL1        0.1123
      9 C          62.1222   84.5275   11.7154 C.3     1  UNL1        0.1152
     10 N          63.0062   85.1901   12.7300 N.am    1  UNL1       -0.2714
     11 C          63.6433   84.3748   13.8161 C.2     1  UNL1        0.2648
     12 O          64.5272   85.0373   14.8307 O.2     1  UNL1       -0.2683
     13 C          63.2530   86.6678   12.6587 C.3     1  UNL1        0.1152
     14 C          62.6159   87.4831   11.5727 C.3     1  UNL1        0.1123
     15 C          63.3964   82.8970   13.8874 C.ar    1  UNL1        0.1110
     16 C          64.1472   81.8402   13.1327 C.ar    1  UNL1        0.0231
     17 C          63.5702   80.5065   13.5048 C.ar    1  UNL1        0.0201
     18 C          62.4628   80.7391   14.4896 C.ar    1  UNL1        0.0725
     19 N          62.3554   82.2164   14.7260 N.ar    1  UNL1       -0.3484
     20 H          61.7142   82.6613   15.3262 H       1  UNL1        0.1661
     21 N          57.6992   90.2977    6.2110 N.am    1  UNL1       -0.1708
     22 C          59.1835   90.0817    6.2140 C.2     1  UNL1        0.3078
     23 O          60.0307   90.6809    5.1309 O.2     1  UNL1       -0.2516
     24 H          57.1431   89.9044    6.9219 H       1  UNL1        0.2545
     25 N          55.5684   91.1485    4.9921 N.pl3   1  UNL1       -0.1313
     26 C          57.0620   91.1130    5.1250 C.2     1  UNL1        0.3751
     27 N          57.9187   91.8927    4.1719 N.pl3   1  UNL1       -0.2906
     28 H          55.1503   91.6836    4.2793 H       1  UNL1        0.3060
     29 H          57.5005   92.4278    3.4591 H       1  UNL1        0.2545
     30 H          58.8990   91.8693    4.2592 H       1  UNL1        0.2545
     31 C          61.5283   85.7157    7.7763 C.3     1  UNL1        0.4197
     32 F          62.0635   84.3481    7.4714 F       1  UNL1       -0.1658
     33 F          62.9131   86.1822    8.1149 F       1  UNL1       -0.1658
     34 F          60.1435   85.2493    7.4377 F       1  UNL1       -0.1658
@<TRIPOS>BOND
     1    25    26    2
     2    26    27    1
     3    26    21    1
     4    21    22   am
     5    22    23    2
     6    22     1    1
     7     1     2   ar
     8     2     3   ar
     9     3     4   ar
    10     4     7    1
    11     7     8    1
    12     8     9    1
    13     9    10    1
    14    10    11   am
    15    11    12    2
    16    11    15    1
    17    15    16   ar
    18    16    17   ar
    19    17    18   ar
    20    18    19   ar
    21    10    13    1
    22    13    14    1
    23     4     5   ar
    24     5    31    1
    25    31    32    1
    26    31    33    1
    27    31    34    1
    28     5     6   ar
    29     6     1   ar
    30    14     7    1
    31    19    15   ar
    32    25    28    1
    33    27    29    1
    34    27    30    1
    35    21    24    1
    36    19    20    1
@<TRIPOS>MOLECULE
*****
 34 36 0 0 0
SMALL
GASTEIGER

@<TRIPOS>ATOM
      1 C          64.0963   89.5202   13.6982 C.ar    1  UNL1        0.0697
      2 C          63.4541   88.9923   12.4497 C.ar    1  UNL1        0.0073
      3 C          63.1306   87.5323   12.3324 C.ar    1  UNL1        0.0147
      4 C          63.4493   86.6002   13.4636 C.ar    1  UNL1        0.0518
      5 C          64.0916   87.1282   14.7121 C.ar    1  UNL1        0.0849
      6 C          64.4151   88.5882   14.8294 C.ar    1  UNL1        0.0111
      7 N          63.1258   85.1402   13.3463 N.pl3   1  UNL1       -0.3041
      8 C          63.4581   84.3973   12.0863 C.3     1  UNL1        0.1123
      9 C          63.1346   82.9373   11.9690 C.3     1  UNL1        0.1152
     10 N          62.4788   82.2202   13.1117 N.am    1  UNL1       -0.2714
     11 C          62.1553   80.7602   12.9944 C.2     1  UNL1        0.2648
     12 O          61.4996   80.0432   14.1371 O.2     1  UNL1       -0.2683
     13 C          62.1466   82.9632   14.3717 C.3     1  UNL1        0.1152
     14 C          62.4701   84.4232   14.4890 C.3     1  UNL1        0.1123
     15 C          62.4876   80.0173   11.7345 C.ar    1  UNL1        0.1110
     16 C          62.8664   80.6344   10.4208 C.ar    1  UNL1        0.0231
     17 C          63.1123   79.5252    9.4413 C.ar    1  UNL1        0.0201
     18 C          62.8855   78.2226   10.1496 C.ar    1  UNL1        0.0725
     19 N          62.4994   78.5267   11.5668 N.ar    1  UNL1       -0.3484
     20 H          62.2904   77.8642   12.2645 H       1  UNL1        0.1661
     21 N          65.3580   91.6215   12.8365 N.am    1  UNL1       -0.1708
     22 C          64.4198   90.9802   13.8155 C.2     1  UNL1        0.3078
     23 O          63.8052   91.7989   14.9118 O.2     1  UNL1       -0.2516
     24 H          65.7615   91.0842   12.1169 H       1  UNL1        0.2545
     25 N          65.9991   93.6740   14.2947 N.pl3   1  UNL1       -0.1313
     26 C          65.6815   93.0815   12.9538 C.2     1  UNL1        0.3751
     27 N          65.6874   93.9491   11.7301 N.pl3   1  UNL1       -0.2906
     28 H          66.2115   94.6322   14.3717 H       1  UNL1        0.3060
     29 H          65.8997   94.9073   11.8070 H       1  UNL1        0.2545
     30 H          65.4789   93.5602   10.8500 H       1  UNL1        0.2545
     31 C          64.4104   86.1961   15.8433 C.3     1  UNL1        0.4197
     32 F          64.7292   85.2641   16.9746 F       1  UNL1       -0.1658
     33 F          65.5756   85.6549   15.0691 F       1  UNL1       -0.1658
     34 F          63.2453   86.7373   16.6176 F       1  UNL1       -0.1658
@<TRIPOS>BOND
     1    25    26    2
     2    26    27    1
     3    26    21    1
     4    21    22   am
     5    22    23    2
     6    22     1    1
     7     1     2   ar
     8     2     3   ar
     9     3     4   ar
    10     4     7    1
    11     7     8    1
    12     8     9    1
    13     9    10    1
    14    10    11   am
    15    11    12    2
    16    11    15    1
    17    15    16   ar
    18    16    17   ar
    19    17    18   ar
    20    18    19   ar
    21    10    13    1
    22    13    14    1
    23     4     5   ar
    24     5    31    1
    25    31    32    1
    26    31    33    1
    27    31    34    1
    28     5     6   ar
    29     6     1   ar
    30    14     7    1
    31    19    15   ar
    32    25    28    1
    33    27    29    1
    34    27    30    1
    35    21    24    1
    36    19    20    1
