@<TRIPOS>MOLECULE
*****
 39 44 0 0 0
SMALL
GASTEIGER

@<TRIPOS>ATOM
      1 N          64.2498   89.3384   14.2824 N.3     1  UNL1       -0.2676
      2 C          63.2581   89.6062   13.1894 C.3     1  UNL1        0.0746
      3 C          62.7165   88.4701   12.3733 C.3     1  UNL1        0.0449
      4 C          63.1666   87.0663   12.6504 C.3     1  UNL1        0.1391
      5 C          64.1583   86.7986   13.7434 C.3     1  UNL1        0.0449
      6 C          64.6999   87.9346   14.5594 C.3     1  UNL1        0.0746
      7 C          63.5217   85.6177   12.8107 C.2     1  UNL1        0.2529
      8 O          64.4807   85.0510   13.8152 O.2     1  UNL1       -0.2724
      9 N          62.7493   84.8354   11.7901 N.am    1  UNL1       -0.1907
     10 C          61.9168   85.8005   10.9990 C.2     1  UNL1        0.3219
     11 O          60.9894   85.4487    9.8740 O.2     1  UNL1       -0.2512
     12 N          62.1747   87.1792   11.5307 N.am    1  UNL1       -0.2222
     13 C          61.5504   88.4481   11.0306 C.ar    1  UNL1        0.1453
     14 C          60.3258   88.9965   11.7011 C.ar    1  UNL1        0.0922
     15 C          59.7016   90.2654   11.2009 C.ar    1  UNL1        0.2259
     16 O          58.4769   90.8138   11.8713 O.3     1  UNL1       -0.4919
     17 N          60.3020   90.9860   10.0303 N.ar    1  UNL1       -0.1894
     18 C          61.5266   90.4376    9.3598 C.ar    1  UNL1        0.2027
     19 N          62.1508   89.1687    9.8600 N.ar    1  UNL1       -0.2084
     20 H          58.1019   90.3637   12.6026 H       1  UNL1        0.2938
     21 C          62.8003   83.3491   11.5949 C.ar    1  UNL1        0.0623
     22 C          63.2759   82.7798   10.2912 C.ar    1  UNL1        0.0166
     23 C          63.3270   81.2935   10.0960 C.ar    1  UNL1        0.0162
     24 C          62.9025   80.3764   11.2044 C.ar    1  UNL1        0.0539
     25 C          62.4269   80.9457   12.5081 C.ar    1  UNL1        0.0162
     26 C          62.3758   82.4320   12.7034 C.ar    1  UNL1        0.0166
     27 N          62.9536   78.8900   11.0092 N.am    1  UNL1       -0.2581
     28 C          62.4473   77.7020   11.7721 C.3     1  UNL1        0.1078
     29 C          63.0259   76.7880   10.7331 C.3     1  UNL1        0.1074
     30 C          63.5322   77.9760    9.9700 C.2     1  UNL1        0.2311
     31 O          64.2994   78.1698    8.6957 O.2     1  UNL1       -0.2745
     32 C          64.7915   90.4746   15.0985 C.3     1  UNL1        0.1183
     33 C          66.5737   92.3509   16.6161 C.3     1  UNL1        0.0323
     34 C          66.2547   92.6201   15.1754 C.ar    1  UNL1       -0.0069
     35 C          66.8267   93.8274   14.4935 C.ar    1  UNL1       -0.0015
     36 C          66.5077   94.0966   13.0527 C.ar    1  UNL1        0.0203
     37 C          65.6166   93.1585   12.2939 C.ar    1  UNL1        0.0985
     38 N          65.0445   91.9511   12.9758 N.ar    1  UNL1       -0.2471
     39 C          65.3635   91.6819   14.4166 C.ar    1  UNL1        0.0712
@<TRIPOS>BOND
     1    33    34    1
     2    34    35   ar
     3    35    36   ar
     4    36    37   ar
     5    37    38   ar
     6    38    39   ar
     7    39    32    1
     8    32     1    1
     9     1     2    1
    10     2     3    1
    11     3     4    1
    12     4     5    1
    13     5     6    1
    14     4     7    1
    15     7     8    2
    16     7     9   am
    17     9    21    1
    18    21    22   ar
    19    22    23   ar
    20    23    24   ar
    21    24    27    1
    22    27    28    1
    23    28    29    1
    24    29    30    1
    25    30    31    2
    26    24    25   ar
    27    25    26   ar
    28     9    10   am
    29    10    11    2
    30    10    12   am
    31    12    13    1
    32    13    14   ar
    33    14    15   ar
    34    15    16    1
    35    15    17   ar
    36    17    18   ar
    37    18    19   ar
    38    39    34   ar
    39     6     1    1
    40    26    21   ar
    41    19    13   ar
    42    12     4    1
    43    30    27   am
    44    16    20    1
@<TRIPOS>MOLECULE
*****
 39 44 0 0 0
SMALL
GASTEIGER

@<TRIPOS>ATOM
      1 N          59.2276   95.8241   -1.9037 N.3     1  UNL1       -0.2676
      2 C          60.7156   95.8595   -1.7182 C.3     1  UNL1        0.0746
      3 C          61.3479   95.1102   -0.5831 C.3     1  UNL1        0.0449
      4 C          60.4922   94.3254    0.3666 C.3     1  UNL1        0.1391
      5 C          59.0041   94.2900    0.1811 C.3     1  UNL1        0.0449
      6 C          58.3719   95.0394   -0.9540 C.3     1  UNL1        0.0746
      7 C          59.7691   93.5019    1.3908 C.2     1  UNL1        0.2529
      8 O          58.2867   93.2831    1.4596 O.2     1  UNL1       -0.2724
      9 N          60.7887   92.9355    2.3341 N.am    1  UNL1       -0.1907
     10 C          62.1419   93.4090    1.8929 C.2     1  UNL1        0.3219
     11 O          63.4488   93.0811    2.5519 O.2     1  UNL1       -0.2512
     12 N          61.9587   94.2680    0.6769 N.am    1  UNL1       -0.2222
     13 C          63.0502   94.9499   -0.0935 C.ar    1  UNL1        0.1453
     14 C          63.4803   94.4078   -1.4243 C.ar    1  UNL1        0.0922
     15 C          64.5718   95.0897   -2.1946 C.ar    1  UNL1        0.2259
     16 O          65.0019   94.5476   -3.5254 O.3     1  UNL1       -0.4919
     17 N          65.2333   96.3139   -1.6342 N.ar    1  UNL1       -0.1894
     18 C          64.8032   96.8560   -0.3034 C.ar    1  UNL1        0.2027
     19 N          63.7117   96.1740    0.4669 N.ar    1  UNL1       -0.2084
     20 H          64.5888   93.7829   -3.8755 H       1  UNL1        0.2938
     21 C          60.5049   92.0509    3.5118 C.ar    1  UNL1        0.0623
     22 C          61.6041   91.2255    4.1120 C.ar    1  UNL1        0.0166
     23 C          61.3202   90.3410    5.2897 C.ar    1  UNL1        0.0162
     24 C          59.9372   90.2818    5.8672 C.ar    1  UNL1        0.0539
     25 C          58.8379   91.1072    5.2670 C.ar    1  UNL1        0.0162
     26 C          59.1217   91.9918    4.0893 C.ar    1  UNL1        0.0166
     27 N          59.6534   89.3972    7.0449 N.am    1  UNL1       -0.2581
     28 C          58.7875   88.1962    7.2851 C.3     1  UNL1        0.1078
     29 C          59.2520   88.1463    8.7104 C.3     1  UNL1        0.1074
     30 C          60.1179   89.3474    8.4703 C.2     1  UNL1        0.2311
     31 O          61.0587   90.1613    9.3084 O.2     1  UNL1       -0.2745
     32 C          58.5952   96.5735   -3.0389 C.3     1  UNL1        0.1183
     33 C          59.1670   94.5847   -5.2110 C.3     1  UNL1        0.0323
     34 C          57.7504   94.9621   -4.8935 C.ar    1  UNL1       -0.0069
     35 C          56.6196   94.3450   -5.6620 C.ar    1  UNL1       -0.0015
     36 C          55.2030   94.7223   -5.3445 C.ar    1  UNL1        0.0203
     37 C          54.9171   95.7167   -4.2585 C.ar    1  UNL1        0.0985
     38 N          56.0479   96.3338   -3.4899 N.ar    1  UNL1       -0.2471
     39 C          57.4645   95.9565   -3.8074 C.ar    1  UNL1        0.0712
@<TRIPOS>BOND
     1    33    34    1
     2    34    35   ar
     3    35    36   ar
     4    36    37   ar
     5    37    38   ar
     6    38    39   ar
     7    39    32    1
     8    32     1    1
     9     1     2    1
    10     2     3    1
    11     3     4    1
    12     4     5    1
    13     5     6    1
    14     4     7    1
    15     7     8    2
    16     7     9   am
    17     9    21    1
    18    21    22   ar
    19    22    23   ar
    20    23    24   ar
    21    24    27    1
    22    27    28    1
    23    28    29    1
    24    29    30    1
    25    30    31    2
    26    24    25   ar
    27    25    26   ar
    28     9    10   am
    29    10    11    2
    30    10    12   am
    31    12    13    1
    32    13    14   ar
    33    14    15   ar
    34    15    16    1
    35    15    17   ar
    36    17    18   ar
    37    18    19   ar
    38    39    34   ar
    39     6     1    1
    40    26    21   ar
    41    19    13   ar
    42    12     4    1
    43    30    27   am
    44    16    20    1
@<TRIPOS>MOLECULE
*****
 39 44 0 0 0
SMALL
GASTEIGER

@<TRIPOS>ATOM
      1 N          64.4273   89.4239   14.5387 N.3     1  UNL1       -0.2676
      2 C          63.4683   89.7211   13.4243 C.3     1  UNL1        0.0746
      3 C          62.9075   88.6013   12.5988 C.3     1  UNL1        0.0449
      4 C          63.3055   87.1842   12.8879 C.3     1  UNL1        0.1391
      5 C          64.2645   86.8870   14.0024 C.3     1  UNL1        0.0449
      6 C          64.8253   88.0068   14.8278 C.3     1  UNL1        0.0746
      7 C          63.6097   85.7253   13.0583 C.2     1  UNL1        0.2529
      8 O          64.5281   85.1301   14.0840 O.2     1  UNL1       -0.2724
      9 N          62.8341   84.9660   12.0228 N.am    1  UNL1       -0.1907
     10 C          62.0507   85.9558   11.2124 C.2     1  UNL1        0.3219
     11 O          61.1364   85.6316   10.0684 O.2     1  UNL1       -0.2512
     12 N          62.3420   87.3267   11.7471 N.am    1  UNL1       -0.2222
     13 C          61.7702   88.6140   11.2315 C.ar    1  UNL1        0.1453
     14 C          62.6536   89.5952   10.5196 C.ar    1  UNL1        0.0922
     15 C          62.0818   90.8825   10.0041 C.ar    1  UNL1        0.2259
     16 O          62.9651   91.8637    9.2922 O.3     1  UNL1       -0.4919
     17 N          60.6265   91.1887   10.2004 N.ar    1  UNL1       -0.1894
     18 C          59.7431   90.2075   10.9124 C.ar    1  UNL1        0.2027
     19 N          60.3150   88.9202   11.4279 N.ar    1  UNL1       -0.2084
     20 H          63.8742   91.6725    9.1695 H       1  UNL1        0.2938
     21 C          62.8409   83.4783   11.8313 C.ar    1  UNL1        0.0623
     22 C          63.4103   82.8863   10.5763 C.ar    1  UNL1        0.0166
     23 C          63.4171   81.3986   10.3848 C.ar    1  UNL1        0.0162
     24 C          62.8544   80.5030   11.4483 C.ar    1  UNL1        0.0539
     25 C          62.2849   81.0950   12.7033 C.ar    1  UNL1        0.0162
     26 C          62.2782   82.5827   12.8948 C.ar    1  UNL1        0.0166
     27 N          62.8611   79.0153   11.2568 N.am    1  UNL1       -0.2581
     28 C          62.9592   78.0986   10.0736 C.3     1  UNL1        0.1078
     29 C          62.8707   76.9113   10.9860 C.3     1  UNL1        0.1074
     30 C          62.7726   77.8280   12.1693 C.2     1  UNL1        0.2311
     31 O          62.6406   77.6366   13.6511 O.2     1  UNL1       -0.2745
     32 C          64.9882   90.5438   15.3642 C.3     1  UNL1        0.1183
     33 C          67.1322   92.1416   16.7245 C.3     1  UNL1        0.0323
     34 C          66.6313   92.5563   15.3728 C.ar    1  UNL1       -0.0069
     35 C          67.2023   93.7699   14.7013 C.ar    1  UNL1       -0.0015
     36 C          66.7014   94.1846   13.3496 C.ar    1  UNL1        0.0203
     37 C          65.6294   93.3858   12.6694 C.ar    1  UNL1        0.0985
     38 N          65.0583   92.1721   13.3410 N.ar    1  UNL1       -0.2471
     39 C          65.5592   91.7574   14.6927 C.ar    1  UNL1        0.0712
@<TRIPOS>BOND
     1    33    34    1
     2    34    35   ar
     3    35    36   ar
     4    36    37   ar
     5    37    38   ar
     6    38    39   ar
     7    39    32    1
     8    32     1    1
     9     1     2    1
    10     2     3    1
    11     3     4    1
    12     4     5    1
    13     5     6    1
    14     4     7    1
    15     7     8    2
    16     7     9   am
    17     9    21    1
    18    21    22   ar
    19    22    23   ar
    20    23    24   ar
    21    24    27    1
    22    27    28    1
    23    28    29    1
    24    29    30    1
    25    30    31    2
    26    24    25   ar
    27    25    26   ar
    28     9    10   am
    29    10    11    2
    30    10    12   am
    31    12    13    1
    32    13    14   ar
    33    14    15   ar
    34    15    16    1
    35    15    17   ar
    36    17    18   ar
    37    18    19   ar
    38    39    34   ar
    39     6     1    1
    40    26    21   ar
    41    19    13   ar
    42    12     4    1
    43    30    27   am
    44    16    20    1
@<TRIPOS>MOLECULE
*****
 39 44 0 0 0
SMALL
GASTEIGER

@<TRIPOS>ATOM
      1 N          59.0226   95.1608   -2.2531 N.3     1  UNL1       -0.2676
      2 C          60.5166   95.0403   -2.1969 C.3     1  UNL1        0.0746
      3 C          61.1697   94.3424   -1.0409 C.3     1  UNL1        0.0449
      4 C          60.3288   93.7650    0.0589 C.3     1  UNL1        0.1391
      5 C          58.8347   93.8855    0.0026 C.3     1  UNL1        0.0449
      6 C          58.1816   94.5834   -1.1534 C.3     1  UNL1        0.0746
      7 C          59.6220   93.1414    1.2257 C.2     1  UNL1        0.2529
      8 O          58.1380   93.1062    1.4415 O.2     1  UNL1       -0.2724
      9 N          60.6598   92.5591    2.1391 N.am    1  UNL1       -0.1907
     10 C          62.0080   92.8229    1.5366 C.2     1  UNL1        0.3219
     11 O          63.3287   92.4134    2.1177 O.2     1  UNL1       -0.2512
     12 N          61.8034   93.5682    0.2510 N.am    1  UNL1       -0.2222
     13 C          62.8837   94.0347   -0.6792 C.ar    1  UNL1        0.1453
     14 C          63.7420   95.2063   -0.3042 C.ar    1  UNL1        0.0922
     15 C          64.8223   95.6728   -1.2345 C.ar    1  UNL1        0.2259
     16 O          65.6806   96.8444   -0.8595 O.3     1  UNL1       -0.4919
     17 N          65.0443   94.9677   -2.5398 N.ar    1  UNL1       -0.1894
     18 C          64.1859   93.7961   -2.9147 C.ar    1  UNL1        0.2027
     19 N          63.1057   93.3296   -1.9844 N.ar    1  UNL1       -0.2084
     20 H          65.5420   97.2848   -0.0442 H       1  UNL1        0.2938
     21 C          60.3958   91.8395    3.4284 C.ar    1  UNL1        0.0623
     22 C          58.9967   91.7425    3.9603 C.ar    1  UNL1        0.0166
     23 C          58.7327   91.0229    5.2496 C.ar    1  UNL1        0.0162
     24 C          59.8677   90.4002    6.0070 C.ar    1  UNL1        0.0539
     25 C          61.2669   90.4971    5.4751 C.ar    1  UNL1        0.0162
     26 C          61.5309   91.2167    4.1858 C.ar    1  UNL1        0.0166
     27 N          59.6037   89.6805    7.2963 N.am    1  UNL1       -0.2581
     28 C          59.5991   90.0676    8.7455 C.3     1  UNL1        0.1078
     29 C          59.2303   88.6628    9.1197 C.3     1  UNL1        0.1074
     30 C          59.2349   88.2755    7.6705 C.2     1  UNL1        0.2311
     31 O          58.9773   87.0083    6.9105 O.2     1  UNL1       -0.2745
     32 C          58.3694   95.8587   -3.4092 C.3     1  UNL1        0.1183
     33 C          57.3080   93.4642   -4.8720 C.3     1  UNL1        0.0323
     34 C          56.3634   94.5151   -4.3686 C.ar    1  UNL1       -0.0069
     35 C          54.8881   94.3687   -4.5966 C.ar    1  UNL1       -0.0015
     36 C          53.9434   95.4195   -4.0932 C.ar    1  UNL1        0.0203
     37 C          54.4741   96.6167   -3.3618 C.ar    1  UNL1        0.0985
     38 N          55.9495   96.7632   -3.1337 N.ar    1  UNL1       -0.2471
     39 C          56.8941   95.7123   -3.6372 C.ar    1  UNL1        0.0712
@<TRIPOS>BOND
     1    33    34    1
     2    34    35   ar
     3    35    36   ar
     4    36    37   ar
     5    37    38   ar
     6    38    39   ar
     7    39    32    1
     8    32     1    1
     9     1     2    1
    10     2     3    1
    11     3     4    1
    12     4     5    1
    13     5     6    1
    14     4     7    1
    15     7     8    2
    16     7     9   am
    17     9    21    1
    18    21    22   ar
    19    22    23   ar
    20    23    24   ar
    21    24    27    1
    22    27    28    1
    23    28    29    1
    24    29    30    1
    25    30    31    2
    26    24    25   ar
    27    25    26   ar
    28     9    10   am
    29    10    11    2
    30    10    12   am
    31    12    13    1
    32    13    14   ar
    33    14    15   ar
    34    15    16    1
    35    15    17   ar
    36    17    18   ar
    37    18    19   ar
    38    39    34   ar
    39     6     1    1
    40    26    21   ar
    41    19    13   ar
    42    12     4    1
    43    30    27   am
    44    16    20    1
