@<TRIPOS>MOLECULE
*****
 38 41 0 0 0
SMALL
GASTEIGER

@<TRIPOS>ATOM
      1 C          63.3905   84.8201   13.3725 C.3     1  UNL1        0.3254
      2 F          64.6644   85.5598   13.0895 F       1  UNL1       -0.1949
      3 F          61.9888   84.2862   13.3816 F       1  UNL1       -0.1949
      4 C          62.7057   85.5796   12.2751 C.ar    1  UNL1        0.1218
      5 C          61.9958   84.8393   11.1806 C.ar    1  UNL1        0.0202
      6 C          61.3110   85.5987   10.0832 C.ar    1  UNL1        0.0029
      7 C          61.3361   87.0985   10.0803 C.ar    1  UNL1        0.0192
      8 C          62.0460   87.8388   11.1749 C.ar    1  UNL1        0.0986
      9 N          62.7308   87.0794   12.2722 N.ar    1  UNL1       -0.2427
     10 C          60.6513   87.8580    8.9829 C.ar    1  UNL1        0.0017
     11 C          60.6735   89.3578    8.9820 C.ar    1  UNL1        0.0032
     12 C          59.9887   90.1174    7.8846 C.ar    1  UNL1        0.0369
     13 C          59.2818   89.3770    6.7882 C.ar    1  UNL1        0.1390
     14 C          59.2596   87.8771    6.7892 C.ar    1  UNL1        0.0369
     15 C          59.9444   87.1177    7.8865 C.ar    1  UNL1        0.0032
     16 O          58.5970   90.1365    5.6908 O.3     1  UNL1       -0.4666
     17 C          58.9778   91.5607    5.4138 C.3     1  UNL1        0.3081
     18 C          59.8121   91.8939    4.2125 C.3     1  UNL1        0.4380
     19 F          60.6463   92.2271    3.0113 F       1  UNL1       -0.1663
     20 F          61.0339   91.3882    4.9208 F       1  UNL1       -0.1663
     21 F          58.5903   92.3995    3.5043 F       1  UNL1       -0.1663
     22 O          64.7601   83.3013   15.5673 O.3     1  UNL1       -0.3755
     23 C          64.0753   84.0607   14.4699 C.3     1  UNL1        0.1932
     24 H          65.0661   82.4462   15.2266 H       1  UNL1        0.2110
     25 C          63.6196   82.7683   13.8599 C.ar    1  UNL1        0.0368
     26 C          62.5913   81.9300   14.5599 C.ar    1  UNL1        0.0028
     27 C          62.1356   80.6376   13.9500 C.ar    1  UNL1        0.0295
     28 C          62.7082   80.1835   12.6400 C.ar    1  UNL1        0.1424
     29 F          62.2525   78.8912   12.0301 F       1  UNL1       -0.2041
     30 C          63.7364   81.0218   11.9400 C.ar    1  UNL1        0.0590
     31 C          64.1922   82.3142   12.5500 C.ar    1  UNL1        0.1408
     32 F          65.2204   83.1525   11.8500 F       1  UNL1       -0.2043
     33 C          64.5311   85.3531   15.0800 C.3     1  UNL1        0.1661
     34 N          63.6242   86.1052   16.0084 N.ar    1  UNL1       -0.2271
     35 C          62.5586   85.5058   16.8775 C.ar    1  UNL1        0.1973
     36 N          61.8995   86.6189   17.6370 N.ar    1  UNL1       -0.2007
     37 C          62.5578   87.9061   17.2371 C.ar    1  UNL1        0.2210
     38 N          63.6237   87.5886   16.2306 N.ar    1  UNL1       -0.1451
@<TRIPOS>BOND
     1    22    23    1
     2    23    33    1
     3    33    34    1
     4    34    35   ar
     5    35    36   ar
     6    36    37   ar
     7    37    38   ar
     8    23    25    1
     9    25    26   ar
    10    26    27   ar
    11    27    28   ar
    12    28    29    1
    13    28    30   ar
    14    30    31   ar
    15    31    32    1
    16    23     1    1
    17     1     2    1
    18     1     3    1
    19     1     4    1
    20     4     5   ar
    21     5     6   ar
    22     6     7   ar
    23     7    10    1
    24    10    11   ar
    25    11    12   ar
    26    12    13   ar
    27    13    16    1
    28    16    17    1
    29    17    18    1
    30    18    19    1
    31    18    20    1
    32    18    21    1
    33    13    14   ar
    34    14    15   ar
    35     7     8   ar
    36     8     9   ar
    37    38    34   ar
    38    31    25   ar
    39     9     4   ar
    40    15    10   ar
    41    22    24    1
@<TRIPOS>MOLECULE
*****
 38 41 0 0 0
SMALL
GASTEIGER

@<TRIPOS>ATOM
      1 C          63.4326   84.7728   13.0962 C.3     1  UNL1        0.3254
      2 F          64.6763   84.7394   12.2582 F       1  UNL1       -0.1949
      3 F          62.0543   84.9886   13.6471 F       1  UNL1       -0.1949
      4 C          62.7233   85.5307   12.0133 C.ar    1  UNL1        0.1218
      5 C          62.1355   84.7960   10.8452 C.ar    1  UNL1        0.0202
      6 C          61.4262   85.5539    9.7623 C.ar    1  UNL1        0.0029
      7 C          61.3049   87.0466    9.8476 C.ar    1  UNL1        0.0192
      8 C          61.8929   87.7813   11.0158 C.ar    1  UNL1        0.0986
      9 N          62.6020   87.0234   12.0986 N.ar    1  UNL1       -0.2427
     10 C          60.5957   87.8045    8.7647 C.ar    1  UNL1        0.0017
     11 C          59.8951   87.0626    7.6654 C.ar    1  UNL1        0.0032
     12 C          59.1858   87.8205    6.5825 C.ar    1  UNL1        0.0369
     13 C          59.1773   89.3204    6.5990 C.ar    1  UNL1        0.1390
     14 C          59.8780   90.0623    7.6984 C.ar    1  UNL1        0.0369
     15 C          60.5872   89.3044    8.7812 C.ar    1  UNL1        0.0032
     16 O          58.4681   90.0783    5.5162 O.3     1  UNL1       -0.4666
     17 C          58.7897   91.5240    5.2787 C.3     1  UNL1        0.3081
     18 C          59.7302   91.9119    4.1763 C.3     1  UNL1        0.4380
     19 F          60.6706   92.2997    3.0740 F       1  UNL1       -0.1663
     20 F          60.8835   91.3759    4.9718 F       1  UNL1       -0.1663
     21 F          58.5769   92.4479    3.3810 F       1  UNL1       -0.1663
     22 O          64.8511   83.2570   15.2618 O.3     1  UNL1       -0.3755
     23 C          64.1418   84.0149   14.1790 C.3     1  UNL1        0.1932
     24 H          64.4403   83.4556   16.1178 H       1  UNL1        0.2110
     25 C          63.8400   85.1184   15.1491 C.ar    1  UNL1        0.0368
     26 C          64.4852   86.4621   14.9810 C.ar    1  UNL1        0.0028
     27 C          64.1833   87.5656   15.9511 C.ar    1  UNL1        0.0295
     28 C          63.2363   87.3255   17.0893 C.ar    1  UNL1        0.1424
     29 F          62.9344   88.4290   18.0594 F       1  UNL1       -0.2041
     30 C          62.5911   85.9818   17.2574 C.ar    1  UNL1        0.0590
     31 C          62.8929   84.8782   16.2872 C.ar    1  UNL1        0.1408
     32 F          62.2477   83.5346   16.4553 F       1  UNL1       -0.2043
     33 C          64.4437   82.9113   13.2089 C.3     1  UNL1        0.1661
     34 N          63.5608   81.7001   13.1523 N.ar    1  UNL1       -0.2271
     35 C          63.1629   80.9562   11.9120 C.ar    1  UNL1        0.1973
     36 N          62.2769   79.8164   12.3193 N.ar    1  UNL1       -0.2007
     37 C          62.1273   79.8558   13.8113 C.ar    1  UNL1        0.2210
     38 N          62.9208   81.0200   14.3261 N.ar    1  UNL1       -0.1451
@<TRIPOS>BOND
     1    22    23    1
     2    23    33    1
     3    33    34    1
     4    34    35   ar
     5    35    36   ar
     6    36    37   ar
     7    37    38   ar
     8    23    25    1
     9    25    26   ar
    10    26    27   ar
    11    27    28   ar
    12    28    29    1
    13    28    30   ar
    14    30    31   ar
    15    31    32    1
    16    23     1    1
    17     1     2    1
    18     1     3    1
    19     1     4    1
    20     4     5   ar
    21     5     6   ar
    22     6     7   ar
    23     7    10    1
    24    10    11   ar
    25    11    12   ar
    26    12    13   ar
    27    13    16    1
    28    16    17    1
    29    17    18    1
    30    18    19    1
    31    18    20    1
    32    18    21    1
    33    13    14   ar
    34    14    15   ar
    35     7     8   ar
    36     8     9   ar
    37    38    34   ar
    38    31    25   ar
    39     9     4   ar
    40    15    10   ar
    41    22    24    1
@<TRIPOS>MOLECULE
*****
 38 41 0 0 0
SMALL
GASTEIGER

@<TRIPOS>ATOM
      1 C          61.5080   87.7961   10.3939 C.3     1  UNL1        0.3254
      2 F          60.4789   87.8636   11.4832 F       1  UNL1       -0.1949
      3 F          62.7175   87.9609    9.5221 F       1  UNL1       -0.1949
      4 C          62.3797   88.7478   11.1585 C.ar    1  UNL1        0.1218
      5 C          62.6929   90.1000   10.5897 C.ar    1  UNL1        0.0202
      6 C          63.5646   91.0517   11.3543 C.ar    1  UNL1        0.0029
      7 C          64.1229   90.6512   12.6877 C.ar    1  UNL1        0.0192
      8 C          63.8097   89.2990   13.2564 C.ar    1  UNL1        0.0986
      9 N          62.9381   88.3473   12.4919 N.ar    1  UNL1       -0.2427
     10 C          64.9945   91.6028   13.4523 C.ar    1  UNL1        0.0017
     11 C          65.7141   92.7045   12.7321 C.ar    1  UNL1        0.0032
     12 C          66.5857   93.6562   13.4967 C.ar    1  UNL1        0.0369
     13 C          66.7378   93.5062   14.9814 C.ar    1  UNL1        0.1390
     14 C          66.0182   92.4045   15.7016 C.ar    1  UNL1        0.0369
     15 C          65.1466   91.4528   14.9370 C.ar    1  UNL1        0.0032
     16 O          67.6094   94.4578   15.7460 O.3     1  UNL1       -0.4666
     17 C          69.0149   94.0698   16.0980 C.3     1  UNL1        0.3081
     18 C          69.5015   92.6788   15.8178 C.3     1  UNL1        0.4380
     19 F          69.9881   91.2879   15.5375 F       1  UNL1       -0.1663
     20 F          68.9033   92.2091   17.1106 F       1  UNL1       -0.1663
     21 F          70.0997   93.1486   14.5249 F       1  UNL1       -0.1663
     22 O          59.7648   85.8928    8.8649 O.3     1  UNL1       -0.3755
     23 C          60.6364   86.8444    9.6294 C.3     1  UNL1        0.1932
     24 H          59.9211   84.9882    9.1783 H       1  UNL1        0.2110
     25 C          61.6798   85.7760    9.7698 C.ar    1  UNL1        0.0368
     26 C          61.9813   85.1948   11.1194 C.ar    1  UNL1        0.0028
     27 C          63.0247   84.1264   11.2597 C.ar    1  UNL1        0.0295
     28 C          63.7667   83.6391   10.0505 C.ar    1  UNL1        0.1424
     29 F          64.8101   82.5707   10.1909 F       1  UNL1       -0.2041
     30 C          63.4652   84.2203    8.7010 C.ar    1  UNL1        0.0590
     31 C          62.4217   85.2888    8.5606 C.ar    1  UNL1        0.1408
     32 F          62.1203   85.8699    7.2110 F       1  UNL1       -0.2043
     33 C          59.5929   87.9129    9.4890 C.3     1  UNL1        0.1661
     34 N          59.4860   88.6938    8.2128 N.ar    1  UNL1       -0.2271
     35 C          60.2240   89.9589    7.8889 C.ar    1  UNL1        0.1973
     36 N          59.8165   90.3937    6.5123 N.ar    1  UNL1       -0.2007
     37 C          58.8267   89.3973    5.9855 C.ar    1  UNL1        0.2210
     38 N          58.6225   88.3467    7.0365 N.ar    1  UNL1       -0.1451
@<TRIPOS>BOND
     1    22    23    1
     2    23    33    1
     3    33    34    1
     4    34    35   ar
     5    35    36   ar
     6    36    37   ar
     7    37    38   ar
     8    23    25    1
     9    25    26   ar
    10    26    27   ar
    11    27    28   ar
    12    28    29    1
    13    28    30   ar
    14    30    31   ar
    15    31    32    1
    16    23     1    1
    17     1     2    1
    18     1     3    1
    19     1     4    1
    20     4     5   ar
    21     5     6   ar
    22     6     7   ar
    23     7    10    1
    24    10    11   ar
    25    11    12   ar
    26    12    13   ar
    27    13    16    1
    28    16    17    1
    29    17    18    1
    30    18    19    1
    31    18    20    1
    32    18    21    1
    33    13    14   ar
    34    14    15   ar
    35     7     8   ar
    36     8     9   ar
    37    38    34   ar
    38    31    25   ar
    39     9     4   ar
    40    15    10   ar
    41    22    24    1
@<TRIPOS>MOLECULE
*****
 38 41 0 0 0
SMALL
GASTEIGER

@<TRIPOS>ATOM
      1 C          61.7930   87.7187   10.4120 C.3     1  UNL1        0.3254
      2 F          61.2432   87.1477   11.6855 F       1  UNL1       -0.1949
      3 F          62.5293   88.5049    9.3681 F       1  UNL1       -0.1949
      4 C          62.6312   88.6781   11.2041 C.ar    1  UNL1        0.1218
      5 C          62.9454   90.0353   10.6481 C.ar    1  UNL1        0.0202
      6 C          63.7836   90.9946   11.4402 C.ar    1  UNL1        0.0029
      7 C          64.3074   90.5966   12.7882 C.ar    1  UNL1        0.0192
      8 C          63.9932   89.2393   13.3441 C.ar    1  UNL1        0.0986
      9 N          63.1551   88.2801   12.5521 N.ar    1  UNL1       -0.2427
     10 C          65.1455   91.5559   13.5802 C.ar    1  UNL1        0.0017
     11 C          65.2110   91.4379   15.0741 C.ar    1  UNL1        0.0032
     12 C          66.0491   92.3972   15.8662 C.ar    1  UNL1        0.0369
     13 C          66.8218   93.4744   15.1644 C.ar    1  UNL1        0.1390
     14 C          66.7563   93.5923   13.6704 C.ar    1  UNL1        0.0369
     15 C          65.9182   92.6331   12.8784 C.ar    1  UNL1        0.0032
     16 O          67.6599   94.4336   15.9565 O.3     1  UNL1       -0.4666
     17 C          69.0922   94.1059   16.2580 C.3     1  UNL1        0.3081
     18 C          69.6802   92.8089   15.7865 C.3     1  UNL1        0.4380
     19 F          70.2680   91.5120   15.3151 F       1  UNL1       -0.1663
     20 F          70.2921   93.5132   14.6119 F       1  UNL1       -0.1663
     21 F          69.0683   92.1047   16.9610 F       1  UNL1       -0.1663
     22 O          60.1168   85.8001    8.8281 O.3     1  UNL1       -0.3755
     23 C          60.9549   86.7594    9.6201 C.3     1  UNL1        0.1932
     24 H          60.1704   84.9179    9.2277 H       1  UNL1        0.2110
     25 C          61.8962   85.6460    9.9725 C.ar    1  UNL1        0.0368
     26 C          61.8814   85.0602   11.3534 C.ar    1  UNL1        0.0028
     27 C          62.8227   83.9469   11.7059 C.ar    1  UNL1        0.0295
     28 C          63.7788   83.4192   10.6776 C.ar    1  UNL1        0.1424
     29 F          64.7201   82.3058   11.0300 F       1  UNL1       -0.2041
     30 C          63.7937   84.0050    9.2968 C.ar    1  UNL1        0.0590
     31 C          62.8523   85.1184    8.9442 C.ar    1  UNL1        0.1408
     32 F          62.8672   85.7042    7.5634 F       1  UNL1       -0.2043
     33 C          60.0135   87.8729    9.2675 C.3     1  UNL1        0.1661
     34 N          59.6110   88.8731   10.3103 N.ar    1  UNL1       -0.2271
     35 C          59.0464   88.5572   11.6636 C.ar    1  UNL1        0.1973
     36 N          58.7888   89.8537   12.3726 N.ar    1  UNL1       -0.2007
     37 C          59.1942   90.9709   11.4574 C.ar    1  UNL1        0.2210
     38 N          59.7023   90.3648   10.1828 N.ar    1  UNL1       -0.1451
@<TRIPOS>BOND
     1    22    23    1
     2    23    33    1
     3    33    34    1
     4    34    35   ar
     5    35    36   ar
     6    36    37   ar
     7    37    38   ar
     8    23    25    1
     9    25    26   ar
    10    26    27   ar
    11    27    28   ar
    12    28    29    1
    13    28    30   ar
    14    30    31   ar
    15    31    32    1
    16    23     1    1
    17     1     2    1
    18     1     3    1
    19     1     4    1
    20     4     5   ar
    21     5     6   ar
    22     6     7   ar
    23     7    10    1
    24    10    11   ar
    25    11    12   ar
    26    12    13   ar
    27    13    16    1
    28    16    17    1
    29    17    18    1
    30    18    19    1
    31    18    20    1
    32    18    21    1
    33    13    14   ar
    34    14    15   ar
    35     7     8   ar
    36     8     9   ar
    37    38    34   ar
    38    31    25   ar
    39     9     4   ar
    40    15    10   ar
    41    22    24    1
