@<TRIPOS>MOLECULE
*****
 37 39 0 0 0
SMALL
GASTEIGER

@<TRIPOS>ATOM
      1 C          59.1989   87.3444    7.7319 C.3     1  UNL1        0.0262
      2 C          60.3853   86.6136    8.2872 C.2     1  UNL1       -0.0412
      3 C          60.8397   86.8791    9.6918 C.2     1  UNL1        0.0339
      4 C          62.0261   86.1483   10.2472 C.2     1  UNL1        0.2579
      5 O          62.4805   86.4140   11.6518 O.2     1  UNL1       -0.2690
      6 N          62.7581   85.1520    9.3979 N.am    1  UNL1       -0.2207
      7 C          62.3037   84.8864    7.9933 C.3     1  UNL1        0.1159
      8 C          61.1173   85.6172    7.4380 C.3     1  UNL1        0.0450
      9 N          63.9445   84.4212    9.9532 N.3     1  UNL1       -0.2220
     10 H          64.2773   84.9631   10.7507 H       1  UNL1        0.1456
     11 C          63.8000   83.0039   10.4228 C.3     1  UNL1        0.1141
     12 C          63.2348   82.7183   11.7825 C.ar    1  UNL1       -0.0048
     13 C          62.5582   81.4072   12.0532 C.ar    1  UNL1       -0.0029
     14 C          61.9929   81.1215   13.4130 C.ar    1  UNL1       -0.0002
     15 C          62.1044   82.1470   14.5021 C.ar    1  UNL1        0.0011
     16 C          62.7810   83.4581   14.2314 C.ar    1  UNL1        0.0137
     17 C          63.3462   83.7437   12.8716 C.ar    1  UNL1       -0.0017
     18 C          62.8923   84.4835   15.3204 C.2     1  UNL1        0.0729
     19 O          61.6601   84.9598   16.0310 O.co2   1  UNL1       -0.5446
     20 O          64.2359   85.0326   15.6990 O.co2   1  UNL1       -0.5446
     21 C          60.1077   87.8756   10.5412 C.3     1  UNL1        0.1153
     22 C          60.7313   89.2061   10.8423 C.2     1  UNL1        0.2273
     23 O          59.9039   90.3034   11.4433 O.2     1  UNL1       -0.2747
     24 N          62.1824   89.4394   10.5424 N.am    1  UNL1       -0.3002
     25 H          62.7255   88.7192   10.1479 H       1  UNL1        0.1498
     26 C          62.8061   90.7699   10.8435 C.3     1  UNL1        0.1161
     27 C          63.6062   90.9563   12.0985 C.ar    1  UNL1       -0.0044
     28 C          63.1625   90.3047   13.3747 C.ar    1  UNL1        0.0085
     29 C          63.9626   90.4911   14.6296 C.ar    1  UNL1        0.0574
     30 CL         63.5189   89.8396   15.9057 Cl      1  UNL1       -0.0823
     31 C          65.2066   91.3291   14.6085 C.ar    1  UNL1        0.0111
     32 C          65.6504   91.9806   13.3323 C.ar    1  UNL1       -0.0023
     33 C          64.8502   91.7942   12.0773 C.ar    1  UNL1       -0.0089
     34 C          65.2940   92.4458   10.8012 C.3     1  UNL1        0.0919
     35 N          65.1306   93.9256   10.6184 N.3     1  UNL1       -0.3175
     36 H          64.1377   94.1574   10.5920 H       1  UNL1        0.1192
     37 H          65.5697   94.2105    9.7429 H       1  UNL1        0.1192
@<TRIPOS>UNITY_ATOM_ATTR
19 1
charge -1
@<TRIPOS>BOND
     1     1     2    1
     2     2     3    2
     3     3    21    1
     4    21    22    1
     5    22    23    2
     6    22    24   am
     7    24    26    1
     8    26    27    1
     9    27    28   ar
    10    28    29   ar
    11    29    30    1
    12    29    31   ar
    13    31    32   ar
    14    32    33   ar
    15    33    34    1
    16    34    35    1
    17     3     4    1
    18     4     5    2
    19     4     6   am
    20     6     9    1
    21     9    11    1
    22    11    12    1
    23    12    13   ar
    24    13    14   ar
    25    14    15   ar
    26    15    16   ar
    27    16    18    1
    28    18    19   ar
    29    18    20   ar
    30    16    17   ar
    31     6     7    1
    32     7     8    1
    33     8     2    1
    34    33    27   ar
    35    17    12   ar
    36    24    25    1
    37    35    36    1
    38    35    37    1
    39     9    10    1
@<TRIPOS>MOLECULE
*****
 37 39 0 0 0
SMALL
GASTEIGER

@<TRIPOS>ATOM
      1 C          61.1679   84.5293    6.3439 C.3     1  UNL1        0.0262
      2 C          60.8899   85.5893    7.3681 C.2     1  UNL1       -0.0412
      3 C          61.8845   85.8583    8.4582 C.2     1  UNL1        0.0339
      4 C          61.6065   86.9184    9.4824 C.2     1  UNL1        0.2579
      5 O          62.6013   87.1873   10.5725 O.2     1  UNL1       -0.2690
      6 N          60.3339   87.7095    9.4165 N.am    1  UNL1       -0.2207
      7 C          59.3392   87.4406    8.3264 C.3     1  UNL1        0.1159
      8 C          59.6172   86.3805    7.3023 C.3     1  UNL1        0.0450
      9 N          60.0559   88.7696   10.4407 N.3     1  UNL1       -0.2220
     10 H          60.4376   88.4325   11.3244 H       1  UNL1        0.1456
     11 C          60.5833   90.1598   10.2433 C.3     1  UNL1        0.1141
     12 C          61.8661   90.5756   10.9004 C.ar    1  UNL1       -0.0048
     13 C          62.9281   91.2697   10.1001 C.ar    1  UNL1       -0.0029
     14 C          64.2108   91.6855   10.7571 C.ar    1  UNL1       -0.0002
     15 C          64.4315   91.4072   12.2145 C.ar    1  UNL1        0.0011
     16 C          63.3695   90.7132   13.0148 C.ar    1  UNL1        0.0137
     17 C          62.0868   90.2974   12.3577 C.ar    1  UNL1       -0.0017
     18 C          63.5902   90.4350   14.4721 C.2     1  UNL1        0.0729
     19 O          62.5002   89.8072   15.2893 O.co2   1  UNL1       -0.5446
     20 O          64.9009   90.7846   15.1123 O.co2   1  UNL1       -0.5446
     21 C          63.1573   85.0671    8.5241 C.3     1  UNL1        0.1153
     22 C          63.4453   84.2080    9.7195 C.2     1  UNL1        0.2273
     23 O          64.6780   83.3539    9.7498 O.2     1  UNL1       -0.2747
     24 N          62.5005   84.2029   10.8846 N.am    1  UNL1       -0.3002
     25 H          61.6914   84.7635   10.8647 H       1  UNL1        0.1498
     26 C          62.7885   83.3438   12.0800 C.3     1  UNL1        0.1161
     27 C          63.0354   83.9774   13.4169 C.ar    1  UNL1       -0.0044
     28 C          63.7638   85.2859   13.5038 C.ar    1  UNL1        0.0085
     29 C          64.0107   85.9195   14.8408 C.ar    1  UNL1        0.0574
     30 CL         64.7391   87.2278   14.9276 Cl      1  UNL1       -0.0823
     31 C          63.5292   85.2448   16.0909 C.ar    1  UNL1        0.0111
     32 C          62.8007   83.9364   16.0041 C.ar    1  UNL1       -0.0023
     33 C          62.5538   83.3027   14.6671 C.ar    1  UNL1       -0.0089
     34 C          61.8254   81.9944   14.5803 C.3     1  UNL1        0.0919
     35 N          62.5946   80.7066   14.5749 N.3     1  UNL1       -0.3175
     36 H          63.1532   80.6478   13.7235 H       1  UNL1        0.1192
     37 H          61.9440   79.9218   14.6096 H       1  UNL1        0.1192
@<TRIPOS>UNITY_ATOM_ATTR
19 1
charge -1
@<TRIPOS>BOND
     1     1     2    1
     2     2     3    2
     3     3    21    1
     4    21    22    1
     5    22    23    2
     6    22    24   am
     7    24    26    1
     8    26    27    1
     9    27    28   ar
    10    28    29   ar
    11    29    30    1
    12    29    31   ar
    13    31    32   ar
    14    32    33   ar
    15    33    34    1
    16    34    35    1
    17     3     4    1
    18     4     5    2
    19     4     6   am
    20     6     9    1
    21     9    11    1
    22    11    12    1
    23    12    13   ar
    24    13    14   ar
    25    14    15   ar
    26    15    16   ar
    27    16    18    1
    28    18    19   ar
    29    18    20   ar
    30    16    17   ar
    31     6     7    1
    32     7     8    1
    33     8     2    1
    34    33    27   ar
    35    17    12   ar
    36    24    25    1
    37    35    36    1
    38    35    37    1
    39     9    10    1
@<TRIPOS>MOLECULE
*****
 37 39 0 0 0
SMALL
GASTEIGER

@<TRIPOS>ATOM
      1 C          59.0805   87.3476    7.8054 C.3     1  UNL1        0.0262
      2 C          60.2979   86.6148    8.2860 C.2     1  UNL1       -0.0412
      3 C          60.8702   86.9178    9.6390 C.2     1  UNL1        0.0339
      4 C          62.0876   86.1849   10.1196 C.2     1  UNL1        0.2579
      5 O          62.6600   86.4880   11.4726 O.2     1  UNL1       -0.2690
      6 N          62.7326   85.1491    9.2473 N.am    1  UNL1       -0.2207
      7 C          62.1602   84.8461    7.8943 C.3     1  UNL1        0.1159
      8 C          60.9428   85.5789    7.4137 C.3     1  UNL1        0.0450
      9 N          63.9499   84.4163    9.7279 N.3     1  UNL1       -0.2220
     10 H          64.3510   84.9742   10.4817 H       1  UNL1        0.1456
     11 C          63.8254   83.0142   10.2461 C.3     1  UNL1        0.1141
     12 C          63.3018   82.7699   11.6304 C.ar    1  UNL1       -0.0048
     13 C          62.6832   81.4478   11.9758 C.ar    1  UNL1       -0.0029
     14 C          62.1595   81.2035   13.3600 C.ar    1  UNL1       -0.0002
     15 C          62.2545   82.2815   14.3989 C.ar    1  UNL1        0.0011
     16 C          62.8730   83.6036   14.0534 C.ar    1  UNL1        0.0137
     17 C          63.3967   83.8478   12.6692 C.ar    1  UNL1       -0.0017
     18 C          62.9679   84.6814   15.0922 C.2     1  UNL1        0.0729
     19 O          63.6944   85.9574   14.7850 O.co2   1  UNL1       -0.5446
     20 O          62.3364   84.4835   16.4383 O.co2   1  UNL1       -0.5446
     21 C          60.2253   87.9537   10.5114 C.3     1  UNL1        0.1153
     22 C          60.7075   89.3735   10.4716 C.2     1  UNL1        0.2273
     23 O          59.7221   90.4969   10.3424 O.2     1  UNL1       -0.2747
     24 N          62.1753   89.6698   10.5611 N.am    1  UNL1       -0.3002
     25 H          62.8221   88.9325   10.6459 H       1  UNL1        0.1498
     26 C          62.6575   91.0896   10.5213 C.3     1  UNL1        0.1161
     27 C          63.8943   91.4829   11.2734 C.ar    1  UNL1       -0.0044
     28 C          64.9029   92.3917   10.6354 C.ar    1  UNL1        0.0085
     29 C          66.1396   92.7850   11.3875 C.ar    1  UNL1        0.0574
     30 CL         67.1481   93.6938   10.7495 Cl      1  UNL1       -0.0823
     31 C          66.3679   92.2695   12.7775 C.ar    1  UNL1        0.0111
     32 C          65.3595   91.3607   13.4154 C.ar    1  UNL1       -0.0023
     33 C          64.1226   90.9674   12.6634 C.ar    1  UNL1       -0.0089
     34 C          63.1141   90.0586   13.3013 C.3     1  UNL1        0.0919
     35 N          63.3356   88.5750   13.3014 N.3     1  UNL1       -0.3175
     36 H          63.2985   88.2256   12.3438 H       1  UNL1        0.1192
     37 H          62.6092   88.1228   13.8567 H       1  UNL1        0.1192
@<TRIPOS>UNITY_ATOM_ATTR
19 1
charge -1
@<TRIPOS>BOND
     1     1     2    1
     2     2     3    2
     3     3    21    1
     4    21    22    1
     5    22    23    2
     6    22    24   am
     7    24    26    1
     8    26    27    1
     9    27    28   ar
    10    28    29   ar
    11    29    30    1
    12    29    31   ar
    13    31    32   ar
    14    32    33   ar
    15    33    34    1
    16    34    35    1
    17     3     4    1
    18     4     5    2
    19     4     6   am
    20     6     9    1
    21     9    11    1
    22    11    12    1
    23    12    13   ar
    24    13    14   ar
    25    14    15   ar
    26    15    16   ar
    27    16    18    1
    28    18    19   ar
    29    18    20   ar
    30    16    17   ar
    31     6     7    1
    32     7     8    1
    33     8     2    1
    34    33    27   ar
    35    17    12   ar
    36    24    25    1
    37    35    36    1
    38    35    37    1
    39     9    10    1
@<TRIPOS>MOLECULE
*****
 37 39 0 0 0
SMALL
GASTEIGER

@<TRIPOS>ATOM
      1 C          65.6240   91.6427   14.6698 C.3     1  UNL1        0.0262
      2 C          64.7506   91.3697   13.4812 C.2     1  UNL1       -0.0412
      3 C          63.4729   90.6023   13.6498 C.2     1  UNL1        0.0339
      4 C          62.5995   90.3293   12.4613 C.2     1  UNL1        0.2579
      5 O          61.3217   89.5618   12.6299 O.2     1  UNL1       -0.2690
      6 N          63.0039   90.8237   11.1041 N.am    1  UNL1       -0.2207
      7 C          64.2816   91.5911   10.9355 C.3     1  UNL1        0.1159
      8 C          65.1550   91.8641   12.1240 C.3     1  UNL1        0.0450
      9 N          62.1305   90.5507    9.9155 N.3     1  UNL1       -0.2220
     10 H          62.7030   90.0453    9.2393 H       1  UNL1        0.1456
     11 C          60.8624   89.7669   10.0809 C.3     1  UNL1        0.1141
     12 C          60.6413   88.5197    9.2773 C.ar    1  UNL1       -0.0048
     13 C          59.3447   88.3151    8.5514 C.ar    1  UNL1       -0.0029
     14 C          59.1236   87.0679    7.7479 C.ar    1  UNL1       -0.0002
     15 C          60.1993   86.0253    7.6703 C.ar    1  UNL1        0.0011
     16 C          61.4959   86.2298    8.3962 C.ar    1  UNL1        0.0137
     17 C          61.7169   87.4770    9.1997 C.ar    1  UNL1       -0.0017
     18 C          62.5714   85.1872    8.3186 C.2     1  UNL1        0.0729
     19 O          62.8770   84.5208    7.0099 O.co2   1  UNL1       -0.5446
     20 O          63.3415   84.8109    9.5496 O.co2   1  UNL1       -0.5446
     21 C          63.0685   90.1079   15.0071 C.3     1  UNL1        0.1153
     22 C          63.5770   88.7882   15.5068 C.2     1  UNL1        0.2273
     23 O          63.4119   88.4190   16.9512 O.2     1  UNL1       -0.2747
     24 N          64.2508   87.8376   14.5620 N.am    1  UNL1       -0.3002
     25 H          64.3591   88.0799   13.6140 H       1  UNL1        0.1498
     26 C          64.7594   86.5179   15.0617 C.3     1  UNL1        0.1161
     27 C          64.0480   85.2507   14.6902 C.ar    1  UNL1       -0.0044
     28 C          64.4090   84.5313   13.4244 C.ar    1  UNL1        0.0085
     29 C          63.6976   83.2640   13.0530 C.ar    1  UNL1        0.0574
     30 CL         64.0586   82.5447   11.7872 Cl      1  UNL1       -0.0823
     31 C          62.6252   82.7162   13.9473 C.ar    1  UNL1        0.0111
     32 C          62.2641   83.4355   15.2130 C.ar    1  UNL1       -0.0023
     33 C          62.9756   84.7028   15.5845 C.ar    1  UNL1       -0.0089
     34 C          62.6145   85.4221   16.8503 C.3     1  UNL1        0.0919
     35 N          61.3306   86.1931   16.9347 N.3     1  UNL1       -0.3175
     36 H          61.3667   86.9850   16.2927 H       1  UNL1        0.1192
     37 H          61.2004   86.5335   17.8874 H       1  UNL1        0.1192
@<TRIPOS>UNITY_ATOM_ATTR
19 1
charge -1
@<TRIPOS>BOND
     1     1     2    1
     2     2     3    2
     3     3    21    1
     4    21    22    1
     5    22    23    2
     6    22    24   am
     7    24    26    1
     8    26    27    1
     9    27    28   ar
    10    28    29   ar
    11    29    30    1
    12    29    31   ar
    13    31    32   ar
    14    32    33   ar
    15    33    34    1
    16    34    35    1
    17     3     4    1
    18     4     5    2
    19     4     6   am
    20     6     9    1
    21     9    11    1
    22    11    12    1
    23    12    13   ar
    24    13    14   ar
    25    14    15   ar
    26    15    16   ar
    27    16    18    1
    28    18    19   ar
    29    18    20   ar
    30    16    17   ar
    31     6     7    1
    32     7     8    1
    33     8     2    1
    34    33    27   ar
    35    17    12   ar
    36    24    25    1
    37    35    36    1
    38    35    37    1
    39     9    10    1
@<TRIPOS>MOLECULE
*****
 37 39 0 0 0
SMALL
GASTEIGER

@<TRIPOS>ATOM
      1 C          60.8552   88.9690    9.2057 C.3     1  UNL1        0.0262
      2 C          61.8782   89.5258   10.1509 C.2     1  UNL1       -0.0412
      3 C          62.2911   88.7378   11.3586 C.2     1  UNL1        0.0339
      4 C          63.3141   89.2946   12.3038 C.2     1  UNL1        0.2579
      5 O          63.7270   88.5065   13.5114 O.2     1  UNL1       -0.2690
      6 N          63.9242   90.6395   12.0413 N.am    1  UNL1       -0.2207
      7 C          63.5113   91.4276   10.8337 C.3     1  UNL1        0.1159
      8 C          62.4883   90.8708    9.8885 C.3     1  UNL1        0.0450
      9 N          64.9472   91.1964   12.9865 N.3     1  UNL1       -0.2220
     10 H          65.7691   90.5963   12.9178 H       1  UNL1        0.1456
     11 C          65.4273   92.6083   12.8254 C.3     1  UNL1        0.1141
     12 C          66.2159   92.9983   11.6105 C.ar    1  UNL1       -0.0048
     13 C          67.2722   92.0778   11.0747 C.ar    1  UNL1       -0.0029
     14 C          68.0608   92.4678    9.8598 C.ar    1  UNL1       -0.0002
     15 C          67.7931   93.7783    9.1807 C.ar    1  UNL1        0.0011
     16 C          66.7369   94.6987    9.7166 C.ar    1  UNL1        0.0137
     17 C          65.9483   94.3087   10.9315 C.ar    1  UNL1       -0.0017
     18 C          66.4692   96.0091    9.0375 C.2     1  UNL1        0.0729
     19 O          67.5194   96.6297    8.1645 O.co2   1  UNL1       -0.5446
     20 O          65.1515   96.6990    9.2314 O.co2   1  UNL1       -0.5446
     21 C          61.6810   87.3928   11.6210 C.3     1  UNL1        0.1153
     22 C          62.5434   86.1655   11.6232 C.2     1  UNL1        0.2273
     23 O          62.7860   85.4170   10.3462 O.2     1  UNL1       -0.2747
     24 N          63.1633   85.6867   12.9026 N.am    1  UNL1       -0.3002
     25 H          63.0041   86.1780   13.7408 H       1  UNL1        0.1498
     26 C          64.0257   84.4595   12.9048 C.3     1  UNL1        0.1161
     27 C          63.3946   83.0994   12.9481 C.ar    1  UNL1       -0.0044
     28 C          63.4512   82.2076   11.7433 C.ar    1  UNL1        0.0085
     29 C          62.8200   80.8475   11.7867 C.ar    1  UNL1        0.0574
     30 CL         62.8766   79.9558   10.5819 Cl      1  UNL1       -0.0823
     31 C          62.1323   80.3793   13.0348 C.ar    1  UNL1        0.0111
     32 C          62.0757   81.2710   14.2395 C.ar    1  UNL1       -0.0023
     33 C          62.7069   82.6312   14.1962 C.ar    1  UNL1       -0.0089
     34 C          62.6503   83.5229   15.4010 C.3     1  UNL1        0.0919
     35 N          61.8311   84.7790   15.3665 N.3     1  UNL1       -0.3175
     36 H          62.2339   85.4292   14.6917 H       1  UNL1        0.1192
     37 H          61.8277   85.2082   16.2918 H       1  UNL1        0.1192
@<TRIPOS>UNITY_ATOM_ATTR
19 1
charge -1
@<TRIPOS>BOND
     1     1     2    1
     2     2     3    2
     3     3    21    1
     4    21    22    1
     5    22    23    2
     6    22    24   am
     7    24    26    1
     8    26    27    1
     9    27    28   ar
    10    28    29   ar
    11    29    30    1
    12    29    31   ar
    13    31    32   ar
    14    32    33   ar
    15    33    34    1
    16    34    35    1
    17     3     4    1
    18     4     5    2
    19     4     6   am
    20     6     9    1
    21     9    11    1
    22    11    12    1
    23    12    13   ar
    24    13    14   ar
    25    14    15   ar
    26    15    16   ar
    27    16    18    1
    28    18    19   ar
    29    18    20   ar
    30    16    17   ar
    31     6     7    1
    32     7     8    1
    33     8     2    1
    34    33    27   ar
    35    17    12   ar
    36    24    25    1
    37    35    36    1
    38    35    37    1
    39     9    10    1
@<TRIPOS>MOLECULE
*****
 37 39 0 0 0
SMALL
GASTEIGER

@<TRIPOS>ATOM
      1 C          60.5323   85.4612    7.0501 C.3     1  UNL1        0.0262
      2 C          60.6952   86.5794    8.0365 C.2     1  UNL1       -0.0412
      3 C          61.8085   86.5374    9.0409 C.2     1  UNL1        0.0339
      4 C          61.9714   87.6556   10.0273 C.2     1  UNL1        0.2579
      5 O          63.0848   87.6135   11.0317 O.2     1  UNL1       -0.2690
      6 N          61.0209   88.8158   10.0094 N.am    1  UNL1       -0.2207
      7 C          59.9076   88.8579    9.0051 C.3     1  UNL1        0.1159
      8 C          59.7447   87.7397    8.0187 C.3     1  UNL1        0.0450
      9 N          61.1838   89.9341   10.9959 N.3     1  UNL1       -0.2220
     10 H          61.2290   89.5065   11.9208 H       1  UNL1        0.1456
     11 C          62.3571   90.8625   10.8901 C.3     1  UNL1        0.1141
     12 C          63.3817   90.9041   11.9849 C.ar    1  UNL1       -0.0048
     13 C          63.2564   89.9861   13.1646 C.ar    1  UNL1       -0.0029
     14 C          64.2809   90.0277   14.2594 C.ar    1  UNL1       -0.0002
     15 C          65.4308   90.9873   14.1745 C.ar    1  UNL1        0.0011
     16 C          65.5560   91.9052   12.9949 C.ar    1  UNL1        0.0137
     17 C          64.5314   91.8636   11.9001 C.ar    1  UNL1       -0.0017
     18 C          66.7057   92.8648   12.9100 C.2     1  UNL1        0.0729
     19 O          67.8699   92.7251   13.8457 O.co2   1  UNL1       -0.5446
     20 O          66.6915   93.9640   11.8895 O.co2   1  UNL1       -0.5446
     21 C          62.7590   85.3770    9.0588 C.3     1  UNL1        0.1153
     22 C          62.8562   84.5058   10.2759 C.2     1  UNL1        0.2273
     23 O          61.8516   84.6463   11.3809 O.2     1  UNL1       -0.2747
     24 N          63.9579   83.4940   10.3881 N.am    1  UNL1       -0.3002
     25 H          64.6173   83.4018    9.6628 H       1  UNL1        0.1498
     26 C          64.0550   82.6228   11.6052 C.3     1  UNL1        0.1161
     27 C          63.7693   83.1951   12.9619 C.ar    1  UNL1       -0.0044
     28 C          64.5202   84.4025   13.4400 C.ar    1  UNL1        0.0085
     29 C          64.2345   84.9749   14.7967 C.ar    1  UNL1        0.0574
     30 CL         64.9853   86.1822   15.2746 Cl      1  UNL1       -0.0823
     31 C          63.1978   84.3399   15.6754 C.ar    1  UNL1        0.0111
     32 C          62.4470   83.1326   15.1975 C.ar    1  UNL1       -0.0023
     33 C          62.7327   82.5601   13.8407 C.ar    1  UNL1       -0.0089
     34 C          61.9818   81.3528   13.3628 C.3     1  UNL1        0.0919
     35 N          60.8048   80.8447   14.1415 N.3     1  UNL1       -0.3175
     36 H          61.1200   80.5016   15.0489 H       1  UNL1        0.1192
     37 H          60.3589   80.0853   13.6270 H       1  UNL1        0.1192
@<TRIPOS>UNITY_ATOM_ATTR
19 1
charge -1
@<TRIPOS>BOND
     1     1     2    1
     2     2     3    2
     3     3    21    1
     4    21    22    1
     5    22    23    2
     6    22    24   am
     7    24    26    1
     8    26    27    1
     9    27    28   ar
    10    28    29   ar
    11    29    30    1
    12    29    31   ar
    13    31    32   ar
    14    32    33   ar
    15    33    34    1
    16    34    35    1
    17     3     4    1
    18     4     5    2
    19     4     6   am
    20     6     9    1
    21     9    11    1
    22    11    12    1
    23    12    13   ar
    24    13    14   ar
    25    14    15   ar
    26    15    16   ar
    27    16    18    1
    28    18    19   ar
    29    18    20   ar
    30    16    17   ar
    31     6     7    1
    32     7     8    1
    33     8     2    1
    34    33    27   ar
    35    17    12   ar
    36    24    25    1
    37    35    36    1
    38    35    37    1
    39     9    10    1
@<TRIPOS>MOLECULE
*****
 37 39 0 0 0
SMALL
GASTEIGER

@<TRIPOS>ATOM
      1 C          59.7469   88.7636    7.9343 C.3     1  UNL1        0.0262
      2 C          60.4037   89.0382    9.2546 C.2     1  UNL1       -0.0412
      3 C          61.0451   87.9192   10.0204 C.2     1  UNL1        0.0339
      4 C          61.7019   88.1938   11.3407 C.2     1  UNL1        0.2579
      5 O          62.3433   87.0747   12.1065 O.2     1  UNL1       -0.2690
      6 N          61.7172   89.5874   11.8953 N.am    1  UNL1       -0.2207
      7 C          61.0758   90.7064   11.1295 C.3     1  UNL1        0.1159
      8 C          60.4190   90.4318    9.8092 C.3     1  UNL1        0.0450
      9 N          62.3740   89.8620   13.2156 N.3     1  UNL1       -0.2220
     10 H          61.9689   89.2098   13.8872 H       1  UNL1        0.1456
     11 C          63.8639   89.7518   13.3495 C.3     1  UNL1        0.1141
     12 C          64.7282   90.9571   13.1254 C.ar    1  UNL1       -0.0048
     13 C          64.5271   91.8081   11.9066 C.ar    1  UNL1       -0.0029
     14 C          65.3915   93.0134   11.6826 C.ar    1  UNL1       -0.0002
     15 C          66.4569   93.3676   12.6773 C.ar    1  UNL1        0.0011
     16 C          66.6580   92.5166   13.8960 C.ar    1  UNL1        0.0137
     17 C          65.7936   91.3113   14.1201 C.ar    1  UNL1       -0.0017
     18 C          67.7234   92.8708   14.8907 C.2     1  UNL1        0.0729
     19 O          67.3419   93.3854   16.2471 O.co2   1  UNL1       -0.5446
     20 O          69.1703   92.7106   14.5290 O.co2   1  UNL1       -0.5446
     21 C          61.0298   86.5255    9.4658 C.3     1  UNL1        0.1153
     22 C          62.1978   85.6133    9.6972 C.2     1  UNL1        0.2273
     23 O          63.2829   85.5082    8.6668 O.2     1  UNL1       -0.2747
     24 N          62.2809   84.8063   10.9589 N.am    1  UNL1       -0.3002
     25 H          61.5687   84.8754   11.6352 H       1  UNL1        0.1498
     26 C          63.4489   83.8942   11.1903 C.3     1  UNL1        0.1161
     27 C          63.2180   82.4612   11.5686 C.ar    1  UNL1       -0.0044
     28 C          63.1110   81.4118   10.5021 C.ar    1  UNL1        0.0085
     29 C          62.8801   79.9788   10.8805 C.ar    1  UNL1        0.0574
     30 CL         62.7731   78.9295    9.8140 Cl      1  UNL1       -0.0823
     31 C          62.7562   79.5952   12.3253 C.ar    1  UNL1        0.0111
     32 C          62.8632   80.6445   13.3918 C.ar    1  UNL1       -0.0023
     33 C          63.0942   82.0776   13.0134 C.ar    1  UNL1       -0.0089
     34 C          63.2012   83.1269   14.0799 C.3     1  UNL1        0.0919
     35 N          62.6354   82.8693   15.4450 N.3     1  UNL1       -0.3175
     36 H          61.6203   82.7917   15.3832 H       1  UNL1        0.1192
     37 H          62.8803   83.6409   16.0657 H       1  UNL1        0.1192
@<TRIPOS>UNITY_ATOM_ATTR
19 1
charge -1
@<TRIPOS>BOND
     1     1     2    1
     2     2     3    2
     3     3    21    1
     4    21    22    1
     5    22    23    2
     6    22    24   am
     7    24    26    1
     8    26    27    1
     9    27    28   ar
    10    28    29   ar
    11    29    30    1
    12    29    31   ar
    13    31    32   ar
    14    32    33   ar
    15    33    34    1
    16    34    35    1
    17     3     4    1
    18     4     5    2
    19     4     6   am
    20     6     9    1
    21     9    11    1
    22    11    12    1
    23    12    13   ar
    24    13    14   ar
    25    14    15   ar
    26    15    16   ar
    27    16    18    1
    28    18    19   ar
    29    18    20   ar
    30    16    17   ar
    31     6     7    1
    32     7     8    1
    33     8     2    1
    34    33    27   ar
    35    17    12   ar
    36    24    25    1
    37    35    36    1
    38    35    37    1
    39     9    10    1
@<TRIPOS>MOLECULE
*****
 37 39 0 0 0
SMALL
GASTEIGER

@<TRIPOS>ATOM
      1 C          60.1440   88.3199    7.9085 C.3     1  UNL1        0.0262
      2 C          60.5965   88.7823    9.2618 C.2     1  UNL1       -0.0412
      3 C          61.6659   88.0269    9.9937 C.2     1  UNL1        0.0339
      4 C          62.1184   88.4893   11.3470 C.2     1  UNL1        0.2579
      5 O          63.1879   87.7338   12.0788 O.2     1  UNL1       -0.2690
      6 N          61.5016   89.7071   11.9684 N.am    1  UNL1       -0.2207
      7 C          60.4322   90.4625   11.2366 C.3     1  UNL1        0.1159
      8 C          59.9796   90.0001    9.8833 C.3     1  UNL1        0.0450
      9 N          61.9541   90.1695   13.3217 N.3     1  UNL1       -0.2220
     10 H          61.3440   89.7212   14.0053 H       1  UNL1        0.1456
     11 C          63.3637   89.9170   13.7680 C.3     1  UNL1        0.1141
     12 C          64.4591   90.8575   13.3610 C.ar    1  UNL1       -0.0048
     13 C          64.3979   91.5497   12.0316 C.ar    1  UNL1       -0.0029
     14 C          65.4933   92.4902   11.6247 C.ar    1  UNL1       -0.0002
     15 C          66.6498   92.7385   12.5472 C.ar    1  UNL1        0.0011
     16 C          66.7109   92.0463   13.8765 C.ar    1  UNL1        0.0137
     17 C          65.6155   91.1059   14.2834 C.ar    1  UNL1       -0.0017
     18 C          67.8674   92.2947   14.7989 C.2     1  UNL1        0.0729
     19 O          69.2054   92.6764   14.2383 O.co2   1  UNL1       -0.5446
     20 O          67.6860   92.1613   16.2819 O.co2   1  UNL1       -0.5446
     21 C          62.2829   86.8089    9.3723 C.3     1  UNL1        0.1153
     22 C          62.3615   85.5284   10.1495 C.2     1  UNL1        0.2273
     23 O          61.3101   85.2042   11.1690 O.2     1  UNL1       -0.2747
     24 N          63.4915   84.5721    9.9072 N.am    1  UNL1       -0.3002
     25 H          64.1815   84.7849    9.2380 H       1  UNL1        0.1498
     26 C          63.5700   83.2916   10.6844 C.3     1  UNL1        0.1161
     27 C          63.6642   83.3273   12.1810 C.ar    1  UNL1       -0.0044
     28 C          64.2580   84.5219   12.8669 C.ar    1  UNL1        0.0085
     29 C          64.3521   84.5575   14.3635 C.ar    1  UNL1        0.0574
     30 CL         64.9459   85.7521   15.0493 Cl      1  UNL1       -0.0823
     31 C          63.8525   83.3986   15.1742 C.ar    1  UNL1        0.0111
     32 C          63.2587   82.2041   14.4884 C.ar    1  UNL1       -0.0023
     33 C          63.1645   82.1684   12.9917 C.ar    1  UNL1       -0.0089
     34 C          62.5707   80.9738   12.3059 C.3     1  UNL1        0.0919
     35 N          62.2280   79.7473   13.0985 N.3     1  UNL1       -0.3175
     36 H          63.0835   79.3275   13.4622 H       1  UNL1        0.1192
     37 H          61.7493   79.0767   12.4973 H       1  UNL1        0.1192
@<TRIPOS>UNITY_ATOM_ATTR
19 1
charge -1
@<TRIPOS>BOND
     1     1     2    1
     2     2     3    2
     3     3    21    1
     4    21    22    1
     5    22    23    2
     6    22    24   am
     7    24    26    1
     8    26    27    1
     9    27    28   ar
    10    28    29   ar
    11    29    30    1
    12    29    31   ar
    13    31    32   ar
    14    32    33   ar
    15    33    34    1
    16    34    35    1
    17     3     4    1
    18     4     5    2
    19     4     6   am
    20     6     9    1
    21     9    11    1
    22    11    12    1
    23    12    13   ar
    24    13    14   ar
    25    14    15   ar
    26    15    16   ar
    27    16    18    1
    28    18    19   ar
    29    18    20   ar
    30    16    17   ar
    31     6     7    1
    32     7     8    1
    33     8     2    1
    34    33    27   ar
    35    17    12   ar
    36    24    25    1
    37    35    36    1
    38    35    37    1
    39     9    10    1
@<TRIPOS>MOLECULE
*****
 37 39 0 0 0
SMALL
GASTEIGER

@<TRIPOS>ATOM
      1 C          58.6680   88.3195    7.4175 C.3     1  UNL1        0.0262
      2 C          59.8511   87.5243    7.8843 C.2     1  UNL1       -0.0412
      3 C          60.7117   88.0436    8.9976 C.2     1  UNL1        0.0339
      4 C          61.8948   87.2483    9.4644 C.2     1  UNL1        0.2579
      5 O          62.7555   87.7677   10.5778 O.2     1  UNL1       -0.2690
      6 N          62.2173   85.9338    8.8179 N.am    1  UNL1       -0.2207
      7 C          61.3566   85.4146    7.7045 C.3     1  UNL1        0.1159
      8 C          60.1735   86.2098    7.2378 C.3     1  UNL1        0.0450
      9 N          63.4004   85.1386    9.2847 N.3     1  UNL1       -0.2220
     10 H          63.8926   85.7158    9.9665 H       1  UNL1        0.1456
     11 C          63.1975   83.7953    9.9206 C.3     1  UNL1        0.1141
     12 C          63.0021   83.6896   11.4040 C.ar    1  UNL1       -0.0048
     13 C          63.2634   84.8778   12.2815 C.ar    1  UNL1       -0.0029
     14 C          63.0680   84.7721   13.7649 C.ar    1  UNL1       -0.0002
     15 C          62.6114   83.4781   14.3709 C.ar    1  UNL1        0.0011
     16 C          62.3501   82.2900   13.4935 C.ar    1  UNL1        0.0137
     17 C          62.5455   82.3957   12.0100 C.ar    1  UNL1       -0.0017
     18 C          61.8935   80.9961   14.0995 C.2     1  UNL1        0.0729
     19 O          62.9007   79.9616   14.5062 O.co2   1  UNL1       -0.5446
     20 O          60.4296   80.7366   14.2988 O.co2   1  UNL1       -0.5446
     21 C          60.3893   89.3581    9.6442 C.3     1  UNL1        0.1153
     22 C          60.8605   89.6433   11.0394 C.2     1  UNL1        0.2273
     23 O          60.0610   89.1626   12.2140 O.2     1  UNL1       -0.2747
     24 N          62.1314   90.4091   11.2601 N.am    1  UNL1       -0.3002
     25 H          62.6561   90.7246   10.4891 H       1  UNL1        0.1498
     26 C          62.6026   90.6942   12.6552 C.3     1  UNL1        0.1161
     27 C          64.0071   91.1652   12.8909 C.ar    1  UNL1       -0.0044
     28 C          64.7033   91.9965   11.8543 C.ar    1  UNL1        0.0085
     29 C          66.1077   92.4675   12.0900 C.ar    1  UNL1        0.0574
     30 CL         66.8038   93.2987   11.0534 Cl      1  UNL1       -0.0823
     31 C          66.8161   92.1073   13.3622 C.ar    1  UNL1        0.0111
     32 C          66.1200   91.2761   14.3987 C.ar    1  UNL1       -0.0023
     33 C          64.7154   90.8050   14.1631 C.ar    1  UNL1       -0.0089
     34 C          64.0193   89.9738   15.1996 C.3     1  UNL1        0.0919
     35 N          63.9570   88.4828   15.0475 N.3     1  UNL1       -0.3175
     36 H          63.3913   88.2476   14.2320 H       1  UNL1        0.1192
     37 H          63.5373   88.0732   15.8821 H       1  UNL1        0.1192
@<TRIPOS>UNITY_ATOM_ATTR
19 1
charge -1
@<TRIPOS>BOND
     1     1     2    1
     2     2     3    2
     3     3    21    1
     4    21    22    1
     5    22    23    2
     6    22    24   am
     7    24    26    1
     8    26    27    1
     9    27    28   ar
    10    28    29   ar
    11    29    30    1
    12    29    31   ar
    13    31    32   ar
    14    32    33   ar
    15    33    34    1
    16    34    35    1
    17     3     4    1
    18     4     5    2
    19     4     6   am
    20     6     9    1
    21     9    11    1
    22    11    12    1
    23    12    13   ar
    24    13    14   ar
    25    14    15   ar
    26    15    16   ar
    27    16    18    1
    28    18    19   ar
    29    18    20   ar
    30    16    17   ar
    31     6     7    1
    32     7     8    1
    33     8     2    1
    34    33    27   ar
    35    17    12   ar
    36    24    25    1
    37    35    36    1
    38    35    37    1
    39     9    10    1
