@<TRIPOS>MOLECULE
*****
 41 44 0 0 0
SMALL
GASTEIGER

@<TRIPOS>ATOM
      1 N          64.2360   90.5524   13.2340 N.am    1  UNL1       -0.2770
      2 C          63.0706   90.0253   12.4504 C.2     1  UNL1        0.2266
      3 O          62.1235   89.0479   13.0808 O.2     1  UNL1       -0.2748
      4 C          62.8524   90.4758   11.0364 C.3     1  UNL1        0.0929
      5 C          62.2302   90.6020    9.6774 C.3     1  UNL1        0.0109
      6 C          63.7996   91.4533   10.4060 C.3     1  UNL1        0.0167
      7 C          64.9650   91.9803   11.1896 C.3     1  UNL1        0.0453
      8 C          65.1832   91.5299   12.6036 C.3     1  UNL1        0.1018
      9 C          65.9121   92.9578   10.5592 C.ar    1  UNL1       -0.0197
     10 C          67.2006   92.4750    9.9620 C.ar    1  UNL1       -0.0042
     11 C          68.1478   93.4525    9.3316 C.ar    1  UNL1        0.0005
     12 C          67.8065   94.9128    9.2984 C.ar    1  UNL1        0.0114
     13 C          66.5180   95.3955    9.8956 C.ar    1  UNL1        0.0574
     14 CL         66.1766   96.8558    9.8625 Cl      1  UNL1       -0.0823
     15 C          65.5708   94.4180   10.5260 C.ar    1  UNL1        0.0072
     16 C          66.3486   92.0569   13.3873 C.ar    1  UNL1       -0.0039
     17 C          67.6454   91.3031   13.4012 C.ar    1  UNL1       -0.0018
     18 C          68.8108   91.8301   14.1848 C.ar    1  UNL1        0.0111
     19 C          68.6795   93.1109   14.9546 C.ar    1  UNL1        0.0577
     20 CL         69.8448   93.6378   15.7382 Cl      1  UNL1       -0.0822
     21 C          67.3827   93.8646   14.9406 C.ar    1  UNL1        0.0111
     22 C          66.2172   93.3376   14.1570 C.ar    1  UNL1       -0.0018
     23 C          64.4543   90.1019   14.6481 C.3     1  UNL1        0.0991
     24 C          64.1361   91.0250   15.7868 C.3     1  UNL1        0.0200
     25 C          64.5755   92.0503   16.7896 C.3     1  UNL1        0.0018
     26 C          63.1455   91.5984   16.7563 C.3     1  UNL1        0.0018
     27 C          64.9907   88.7285   14.9233 C.3     1  UNL1        0.1703
     28 S          64.1199   87.7018   15.5850 S.O2    1  UNL1       -0.0115
     29 O          64.9117   86.6086   14.9310 O.2     1  UNL1       -0.1730
     30 O          63.3280   88.7951   16.2390 O.2     1  UNL1       -0.1730
     31 C          62.7817   87.7061   17.2309 C.3     1  UNL1        0.0236
     32 C          63.2491   86.6753   16.2467 C.3     1  UNL1        0.1108
     33 C          63.7165   85.6444   15.2624 C.3     1  UNL1        0.0236
     34 C          62.3783   85.6487   16.9083 C.3     1  UNL1        0.0236
     35 C          61.6891   89.5422   11.1947 C.3     1  UNL1        0.1770
     36 S          61.1407   88.8179   10.0011 S.O2    1  UNL1        0.0382
     37 N          60.5923   88.0937    8.8075 N.3     1  UNL1       -0.2074
     38 O          62.3843   87.9817    9.9372 O.2     1  UNL1       -0.1577
     39 O          59.8971   89.6542   10.0651 O.2     1  UNL1       -0.1577
     40 H          61.2653   87.3934    8.4959 H       1  UNL1        0.1439
     41 H          60.4217   88.7600    8.0543 H       1  UNL1        0.1439
@<TRIPOS>BOND
     1    31    32    1
     2    32    33    1
     3    32    34    1
     4    32    28    1
     5    28    29    2
     6    28    30    2
     7    28    27    1
     8    23    27    1
     9    23    24    1
    10    24    25    1
    11    25    26    1
    12    23     1    1
    13     1     2   am
    14     2     3    2
    15     2     4    1
    16     4     5    1
    17     4    35    1
    18    35    36    1
    19    36    37    1
    20    36    38    2
    21    36    39    2
    22     4     6    1
    23     6     7    1
    24     7     9    1
    25     9    10   ar
    26    10    11   ar
    27    11    12   ar
    28    12    13   ar
    29    13    14    1
    30    13    15   ar
    31     7     8    1
    32     8    16    1
    33    16    17   ar
    34    17    18   ar
    35    18    19   ar
    36    19    20    1
    37    19    21   ar
    38    21    22   ar
    39    26    24    1
    40     8     1    1
    41    22    16   ar
    42    15     9   ar
    43    37    40    1
    44    37    41    1
@<TRIPOS>MOLECULE
*****
 41 44 0 0 0
SMALL
GASTEIGER

@<TRIPOS>ATOM
      1 N          63.9449   89.8741   13.0820 N.am    1  UNL1       -0.2770
      2 C          62.8696   89.4333   12.1336 C.2     1  UNL1        0.2266
      3 O          62.0092   88.2521   12.4720 O.2     1  UNL1       -0.2748
      4 C          62.6547   90.1738   10.8470 C.3     1  UNL1        0.0929
      5 C          62.0705   90.5493    9.5174 C.3     1  UNL1        0.0109
      6 C          63.5150   91.3550   10.5087 C.3     1  UNL1        0.0167
      7 C          64.5903   91.7958   11.4570 C.3     1  UNL1        0.0453
      8 C          64.8052   91.0554   12.7437 C.3     1  UNL1        0.1018
      9 C          65.4507   92.9770   11.1187 C.ar    1  UNL1       -0.0197
     10 C          65.4734   94.1724   12.0246 C.ar    1  UNL1       -0.0042
     11 C          66.3337   95.3536   11.6862 C.ar    1  UNL1        0.0005
     12 C          67.1714   95.3395   10.4421 C.ar    1  UNL1        0.0114
     13 C          67.1487   94.1442    9.5362 C.ar    1  UNL1        0.0574
     14 CL         67.9865   94.1300    8.2919 Cl      1  UNL1       -0.0823
     15 C          66.2884   92.9630    9.8745 C.ar    1  UNL1        0.0072
     16 C          65.8806   91.4962   13.6921 C.ar    1  UNL1       -0.0039
     17 C          65.5137   92.1688   14.9816 C.ar    1  UNL1       -0.0018
     18 C          66.5889   92.6096   15.9300 C.ar    1  UNL1        0.0111
     19 C          68.0312   92.3778   15.5889 C.ar    1  UNL1        0.0577
     20 CL         69.1064   92.8185   16.5373 Cl      1  UNL1       -0.0822
     21 C          68.3981   91.7051   14.2994 C.ar    1  UNL1        0.0111
     22 C          67.3227   91.2643   13.3509 C.ar    1  UNL1       -0.0018
     23 C          64.1599   89.1337   14.3687 C.3     1  UNL1        0.0991
     24 C          63.6380   89.6999   15.6560 C.3     1  UNL1        0.0200
     25 C          63.3831   90.8787   16.5479 C.3     1  UNL1        0.0018
     26 C          62.9891   89.5017   16.9937 C.3     1  UNL1        0.0018
     27 C          64.8966   87.8272   14.3681 C.3     1  UNL1        0.1703
     28 S          64.1627   86.5521   14.6609 S.O2    1  UNL1       -0.0115
     29 O          63.8362   86.4055   13.2042 O.2     1  UNL1       -0.1730
     30 O          64.4892   86.6987   16.1175 O.2     1  UNL1       -0.1730
     31 C          63.4696   84.9193   13.4976 C.3     1  UNL1        0.0236
     32 C          63.4289   85.2771   14.9537 C.3     1  UNL1        0.1108
     33 C          63.3881   85.6349   16.4098 C.3     1  UNL1        0.0236
     34 C          62.6950   84.0021   15.2464 C.3     1  UNL1        0.0236
     35 C          61.5914   89.1230   10.7235 C.3     1  UNL1        0.1770
     36 S          60.1782   89.4360   11.1169 S.O2    1  UNL1        0.0382
     37 N          58.7650   89.7490   11.5104 N.3     1  UNL1       -0.2074
     38 O          59.7322   88.1134   10.5674 O.2     1  UNL1       -0.1577
     39 O          60.6241   90.7586   11.6665 O.2     1  UNL1       -0.1577
     40 H          58.1587   88.9721   11.2473 H       1  UNL1        0.1439
     41 H          58.4586   90.5963   11.0322 H       1  UNL1        0.1439
@<TRIPOS>BOND
     1    31    32    1
     2    32    33    1
     3    32    34    1
     4    32    28    1
     5    28    29    2
     6    28    30    2
     7    28    27    1
     8    23    27    1
     9    23    24    1
    10    24    25    1
    11    25    26    1
    12    23     1    1
    13     1     2   am
    14     2     3    2
    15     2     4    1
    16     4     5    1
    17     4    35    1
    18    35    36    1
    19    36    37    1
    20    36    38    2
    21    36    39    2
    22     4     6    1
    23     6     7    1
    24     7     9    1
    25     9    10   ar
    26    10    11   ar
    27    11    12   ar
    28    12    13   ar
    29    13    14    1
    30    13    15   ar
    31     7     8    1
    32     8    16    1
    33    16    17   ar
    34    17    18   ar
    35    18    19   ar
    36    19    20    1
    37    19    21   ar
    38    21    22   ar
    39    26    24    1
    40     8     1    1
    41    22    16   ar
    42    15     9   ar
    43    37    40    1
    44    37    41    1
@<TRIPOS>MOLECULE
*****
 41 44 0 0 0
SMALL
GASTEIGER

@<TRIPOS>ATOM
      1 N          65.1942   91.5731   13.6057 N.am    1  UNL1       -0.2770
      2 C          65.5261   92.5984   12.5624 C.2     1  UNL1        0.2266
      3 O          66.5404   93.6643   12.8542 O.2     1  UNL1       -0.2748
      4 C          64.8437   92.5579   11.2272 C.3     1  UNL1        0.0929
      5 C          64.4683   92.9327    9.8242 C.3     1  UNL1        0.0109
      6 C          63.8294   91.4920   10.9354 C.3     1  UNL1        0.0167
      7 C          63.4975   90.4667   11.9787 C.3     1  UNL1        0.0453
      8 C          64.1799   90.5073   13.3138 C.3     1  UNL1        0.1018
      9 C          62.4832   89.4009   11.6869 C.ar    1  UNL1       -0.0197
     10 C          61.0215   89.7376   11.6823 C.ar    1  UNL1       -0.0042
     11 C          60.0072   88.6718   11.3904 C.ar    1  UNL1        0.0005
     12 C          60.4546   87.2692   11.1032 C.ar    1  UNL1        0.0114
     13 C          61.9163   86.9324   11.1078 C.ar    1  UNL1        0.0574
     14 CL         62.3637   85.5298   10.8205 Cl      1  UNL1       -0.0823
     15 C          62.9306   87.9983   11.3996 C.ar    1  UNL1        0.0072
     16 C          63.8480   89.4819   14.3572 C.ar    1  UNL1       -0.0039
     17 C          64.4961   88.1299   14.3130 C.ar    1  UNL1       -0.0018
     18 C          64.1642   87.1046   15.3563 C.ar    1  UNL1        0.0111
     19 C          63.1842   87.4313   16.4439 C.ar    1  UNL1        0.0577
     20 CL         62.8524   86.4059   17.4873 Cl      1  UNL1       -0.0822
     21 C          62.5361   88.7833   16.4882 C.ar    1  UNL1        0.0111
     22 C          62.8680   89.8086   15.4448 C.ar    1  UNL1       -0.0018
     23 C          65.8766   91.6136   14.9409 C.3     1  UNL1        0.0991
     24 C          65.1307   92.0949   16.1501 C.3     1  UNL1        0.0200
     25 C          65.1336   92.7018   17.5218 C.3     1  UNL1        0.0018
     26 C          63.8359   92.3217   16.8726 C.3     1  UNL1        0.0018
     27 C          67.3048   91.1728   15.0670 C.3     1  UNL1        0.1703
     28 S          68.3960   92.1937   15.1981 S.O2    1  UNL1       -0.0115
     29 O          68.6668   92.0934   13.7262 O.2     1  UNL1       -0.1730
     30 O          68.1252   92.2940   16.6700 O.2     1  UNL1       -0.1730
     31 C          70.3245   92.4451   14.3511 C.3     1  UNL1        0.0236
     32 C          69.4872   93.2145   15.3292 C.3     1  UNL1        0.1108
     33 C          68.6498   93.9839   16.3074 C.3     1  UNL1        0.0236
     34 C          70.5783   94.2353   15.4604 C.3     1  UNL1        0.0236
     35 C          65.7276   93.7539   11.0317 C.3     1  UNL1        0.1770
     36 S          66.7333   93.7695    9.9189 S.O2    1  UNL1        0.0382
     37 N          67.7389   93.7851    8.8061 N.3     1  UNL1       -0.2074
     38 O          66.3737   95.1935    9.6139 O.2     1  UNL1       -0.1577
     39 O          67.0928   92.3456   10.2239 O.2     1  UNL1       -0.1577
     40 H          67.7363   94.7016    8.3583 H       1  UNL1        0.1439
     41 H          67.4974   93.0706    8.1195 H       1  UNL1        0.1439
@<TRIPOS>BOND
     1    31    32    1
     2    32    33    1
     3    32    34    1
     4    32    28    1
     5    28    29    2
     6    28    30    2
     7    28    27    1
     8    23    27    1
     9    23    24    1
    10    24    25    1
    11    25    26    1
    12    23     1    1
    13     1     2   am
    14     2     3    2
    15     2     4    1
    16     4     5    1
    17     4    35    1
    18    35    36    1
    19    36    37    1
    20    36    38    2
    21    36    39    2
    22     4     6    1
    23     6     7    1
    24     7     9    1
    25     9    10   ar
    26    10    11   ar
    27    11    12   ar
    28    12    13   ar
    29    13    14    1
    30    13    15   ar
    31     7     8    1
    32     8    16    1
    33    16    17   ar
    34    17    18   ar
    35    18    19   ar
    36    19    20    1
    37    19    21   ar
    38    21    22   ar
    39    26    24    1
    40     8     1    1
    41    22    16   ar
    42    15     9   ar
    43    37    40    1
    44    37    41    1
