@<TRIPOS>MOLECULE
*****
 28 31 0 0 0
SMALL
GASTEIGER

@<TRIPOS>ATOM
      1 C          65.1580   92.3540   11.4982 C.ar    1  UNL1        0.1385
      2 C          64.3744   92.1514   10.2354 C.ar    1  UNL1        0.0370
      3 C          63.1712   91.2557   10.2348 C.ar    1  UNL1        0.0063
      4 C          62.7516   90.5626   11.4972 C.ar    1  UNL1        0.0391
      5 C          63.5353   90.7651   12.7601 C.ar    1  UNL1        0.0060
      6 C          63.1157   90.0720   14.0224 C.ar    1  UNL1        0.0002
      7 C          63.8993   90.2746   15.2853 C.ar    1  UNL1        0.0000
      8 C          65.1025   91.1703   15.2858 C.ar    1  UNL1        0.0001
      9 C          65.5221   91.8635   14.0235 C.ar    1  UNL1        0.0030
     10 C          64.7385   91.6609   12.7606 C.ar    1  UNL1        0.0341
     11 C          61.5484   89.6669   11.4966 C.2     1  UNL1        0.1955
     12 O          60.2351   90.1747   12.0138 O.2     1  UNL1       -0.2866
     13 C          61.6584   88.2634   10.9790 C.ar    1  UNL1        0.0389
     14 C          62.4883   87.2548   11.7167 C.ar    1  UNL1        0.0032
     15 C          62.5984   85.8512   11.1991 C.ar    1  UNL1        0.0001
     16 C          61.8786   85.4562    9.9437 C.ar    1  UNL1        0.0000
     17 C          61.0487   86.4648    9.2060 C.ar    1  UNL1        0.0001
     18 C          60.3290   86.0698    7.9507 C.ar    1  UNL1        0.0000
     19 C          59.4991   87.0784    7.2130 C.ar    1  UNL1        0.0000
     20 C          59.3891   88.4819    7.7306 C.ar    1  UNL1        0.0000
     21 C          60.1088   88.8769    8.9860 C.ar    1  UNL1        0.0001
     22 C          60.9387   87.8684    9.7236 C.ar    1  UNL1        0.0031
     23 O          66.3612   93.2497   11.4987 O.3     1  UNL1       -0.4755
     24 C          66.2047   94.7161   11.2244 C.3     1  UNL1        0.2054
     25 C          66.5936   95.2747    9.8877 C.3     1  UNL1        0.0473
     26 C          67.8795   94.8499    9.2427 C.3     1  UNL1        0.0038
     27 C          68.7829   92.4149    9.1749 C.3     1  UNL1        0.0000
     28 C          67.9720   93.5172    8.5606 C.3     1  UNL1        0.0001
@<TRIPOS>BOND
     1    27    28    1
     2    28    26    1
     3    26    25    1
     4    25    24    1
     5    24    23    1
     6    23     1    1
     7     1     2   ar
     8     2     3   ar
     9     3     4   ar
    10     4    11    1
    11    11    12    2
    12    11    13    1
    13    13    14   ar
    14    14    15   ar
    15    15    16   ar
    16    16    17   ar
    17    17    18   ar
    18    18    19   ar
    19    19    20   ar
    20    20    21   ar
    21    21    22   ar
    22     4     5   ar
    23     5     6   ar
    24     6     7   ar
    25     7     8   ar
    26     8     9   ar
    27     9    10   ar
    28    10     1   ar
    29    22    13   ar
    30    10     5   ar
    31    22    17   ar
@<TRIPOS>MOLECULE
*****
 28 31 0 0 0
SMALL
GASTEIGER

@<TRIPOS>ATOM
      1 C          63.9786   91.6400   11.2010 C.ar    1  UNL1        0.1385
      2 C          63.1042   91.3054   10.0291 C.ar    1  UNL1        0.0370
      3 C          62.3452   90.0118   10.0049 C.ar    1  UNL1        0.0063
      4 C          62.4606   89.0529   11.1525 C.ar    1  UNL1        0.0391
      5 C          63.3350   89.3875   12.3245 C.ar    1  UNL1        0.0060
      6 C          63.4504   88.4286   13.4721 C.ar    1  UNL1        0.0002
      7 C          64.3248   88.7632   14.6440 C.ar    1  UNL1        0.0000
      8 C          65.0838   90.0568   14.6683 C.ar    1  UNL1        0.0001
      9 C          64.9684   91.0157   13.5207 C.ar    1  UNL1        0.0030
     10 C          64.0940   90.6811   12.3488 C.ar    1  UNL1        0.0341
     11 C          61.7016   87.7593   11.1282 C.2     1  UNL1        0.1955
     12 O          60.3752   87.6549   11.8211 O.2     1  UNL1       -0.2866
     13 C          62.2688   86.5702   10.4112 C.ar    1  UNL1        0.0389
     14 C          62.3750   86.5770    8.9149 C.ar    1  UNL1        0.0032
     15 C          62.9423   85.3879    8.1979 C.ar    1  UNL1        0.0001
     16 C          63.4034   84.1920    8.9770 C.ar    1  UNL1        0.0000
     17 C          63.2973   84.1851   10.4732 C.ar    1  UNL1        0.0001
     18 C          63.7584   82.9892   11.2523 C.ar    1  UNL1        0.0000
     19 C          63.6522   82.9824   12.7486 C.ar    1  UNL1        0.0000
     20 C          63.0850   84.1715   13.4657 C.ar    1  UNL1        0.0000
     21 C          62.6238   85.3674   12.6865 C.ar    1  UNL1        0.0001
     22 C          62.7300   85.3743   11.1903 C.ar    1  UNL1        0.0031
     23 O          64.7376   92.9336   11.2253 O.3     1  UNL1       -0.4755
     24 C          66.0642   93.0379   10.5330 C.3     1  UNL1        0.2054
     25 C          66.6737   94.3847   10.2788 C.3     1  UNL1        0.0473
     26 C          67.6022   94.5806    9.1171 C.3     1  UNL1        0.0038
     27 C          66.4548   96.8491    8.5815 C.3     1  UNL1        0.0000
     28 C          67.4770   95.8013    8.2545 C.3     1  UNL1        0.0001
@<TRIPOS>BOND
     1    27    28    1
     2    28    26    1
     3    26    25    1
     4    25    24    1
     5    24    23    1
     6    23     1    1
     7     1     2   ar
     8     2     3   ar
     9     3     4   ar
    10     4    11    1
    11    11    12    2
    12    11    13    1
    13    13    14   ar
    14    14    15   ar
    15    15    16   ar
    16    16    17   ar
    17    17    18   ar
    18    18    19   ar
    19    19    20   ar
    20    20    21   ar
    21    21    22   ar
    22     4     5   ar
    23     5     6   ar
    24     6     7   ar
    25     7     8   ar
    26     8     9   ar
    27     9    10   ar
    28    10     1   ar
    29    22    13   ar
    30    10     5   ar
    31    22    17   ar
@<TRIPOS>MOLECULE
*****
 28 31 0 0 0
SMALL
GASTEIGER

@<TRIPOS>ATOM
      1 C          64.1514   89.3917   13.9076 C.ar    1  UNL1        0.1385
      2 C          65.1815   90.0410   14.7834 C.ar    1  UNL1        0.0370
      3 C          65.8392   91.3171   14.3484 C.ar    1  UNL1        0.0063
      4 C          65.4666   91.9438   13.0375 C.ar    1  UNL1        0.0391
      5 C          64.4364   91.2945   12.1616 C.ar    1  UNL1        0.0060
      6 C          64.0638   91.9213   10.8508 C.ar    1  UNL1        0.0002
      7 C          63.0337   91.2720    9.9750 C.ar    1  UNL1        0.0000
      8 C          62.3760   89.9959   10.4100 C.ar    1  UNL1        0.0001
      9 C          62.7486   89.3692   11.7208 C.ar    1  UNL1        0.0030
     10 C          63.7788   90.0185   12.5966 C.ar    1  UNL1        0.0341
     11 C          66.1242   93.2199   12.6025 C.2     1  UNL1        0.1955
     12 O          66.0789   94.4277   13.4909 O.2     1  UNL1       -0.2866
     13 C          66.8271   93.2881   11.2792 C.ar    1  UNL1        0.0389
     14 C          67.7421   92.1767   10.8577 C.ar    1  UNL1        0.0032
     15 C          68.4450   92.2449    9.5344 C.ar    1  UNL1        0.0001
     16 C          68.2330   93.4246    8.6325 C.ar    1  UNL1        0.0000
     17 C          67.3180   94.5360    9.0539 C.ar    1  UNL1        0.0001
     18 C          67.1060   95.7156    8.1520 C.ar    1  UNL1        0.0000
     19 C          66.1910   96.8271    8.5735 C.ar    1  UNL1        0.0000
     20 C          65.4881   96.7588    9.8968 C.ar    1  UNL1        0.0000
     21 C          65.7002   95.5792   10.7987 C.ar    1  UNL1        0.0001
     22 C          66.6151   94.4678   10.3773 C.ar    1  UNL1        0.0031
     23 O          63.4937   88.1157   14.3426 O.3     1  UNL1       -0.4755
     24 C          64.2765   87.0925   15.1109 C.3     1  UNL1        0.2054
     25 C          64.6105   85.7739   14.4788 C.3     1  UNL1        0.0473
     26 C          63.5639   84.7040   14.3778 C.3     1  UNL1        0.0038
     27 C          62.6879   85.4929   12.0626 C.3     1  UNL1        0.0000
     28 C          62.9349   84.3930   13.0521 C.3     1  UNL1        0.0001
@<TRIPOS>BOND
     1    27    28    1
     2    28    26    1
     3    26    25    1
     4    25    24    1
     5    24    23    1
     6    23     1    1
     7     1     2   ar
     8     2     3   ar
     9     3     4   ar
    10     4    11    1
    11    11    12    2
    12    11    13    1
    13    13    14   ar
    14    14    15   ar
    15    15    16   ar
    16    16    17   ar
    17    17    18   ar
    18    18    19   ar
    19    19    20   ar
    20    20    21   ar
    21    21    22   ar
    22     4     5   ar
    23     5     6   ar
    24     6     7   ar
    25     7     8   ar
    26     8     9   ar
    27     9    10   ar
    28    10     1   ar
    29    22    13   ar
    30    10     5   ar
    31    22    17   ar
@<TRIPOS>MOLECULE
*****
 28 31 0 0 0
SMALL
GASTEIGER

@<TRIPOS>ATOM
      1 C          63.8299   91.4734   11.2492 C.ar    1  UNL1        0.1385
      2 C          62.9791   91.1255   10.0639 C.ar    1  UNL1        0.0370
      3 C          62.2641   89.8077   10.0148 C.ar    1  UNL1        0.0063
      4 C          62.3999   88.8380   11.1510 C.ar    1  UNL1        0.0391
      5 C          63.2507   89.1859   12.3364 C.ar    1  UNL1        0.0060
      6 C          63.3865   88.2161   13.4726 C.ar    1  UNL1        0.0002
      7 C          64.2373   88.5641   14.6580 C.ar    1  UNL1        0.0000
      8 C          64.9523   89.8818   14.7071 C.ar    1  UNL1        0.0001
      9 C          64.8165   90.8516   13.5709 C.ar    1  UNL1        0.0030
     10 C          63.9657   90.5036   12.3855 C.ar    1  UNL1        0.0341
     11 C          61.6850   87.5202   11.1019 C.2     1  UNL1        0.1955
     12 O          60.3628   87.3582   11.7916 O.2     1  UNL1       -0.2866
     13 C          62.2921   86.3646   10.3630 C.ar    1  UNL1        0.0389
     14 C          62.3719   86.3905    8.8653 C.ar    1  UNL1        0.0032
     15 C          62.9791   85.2349    8.1265 C.ar    1  UNL1        0.0001
     16 C          63.5064   84.0534    8.8853 C.ar    1  UNL1        0.0000
     17 C          63.4266   84.0274   10.3830 C.ar    1  UNL1        0.0001
     18 C          63.9540   82.8458   11.1418 C.ar    1  UNL1        0.0000
     19 C          63.8742   82.8199   12.6395 C.ar    1  UNL1        0.0000
     20 C          63.2670   83.9755   13.3783 C.ar    1  UNL1        0.0000
     21 C          62.7397   85.1571   12.6195 C.ar    1  UNL1        0.0001
     22 C          62.8195   85.1831   11.1219 C.ar    1  UNL1        0.0031
     23 O          64.5448   92.7912   11.2983 O.3     1  UNL1       -0.4755
     24 C          66.0113   92.8607   10.9911 C.3     1  UNL1        0.2054
     25 C          66.9840   93.2573   12.0618 C.3     1  UNL1        0.0473
     26 C          66.4879   93.8855   13.3304 C.3     1  UNL1        0.0038
     27 C          68.0695   92.3562   14.7123 C.3     1  UNL1        0.0000
     28 C          67.0751   93.4774   14.6490 C.3     1  UNL1        0.0001
@<TRIPOS>BOND
     1    27    28    1
     2    28    26    1
     3    26    25    1
     4    25    24    1
     5    24    23    1
     6    23     1    1
     7     1     2   ar
     8     2     3   ar
     9     3     4   ar
    10     4    11    1
    11    11    12    2
    12    11    13    1
    13    13    14   ar
    14    14    15   ar
    15    15    16   ar
    16    16    17   ar
    17    17    18   ar
    18    18    19   ar
    19    19    20   ar
    20    20    21   ar
    21    21    22   ar
    22     4     5   ar
    23     5     6   ar
    24     6     7   ar
    25     7     8   ar
    26     8     9   ar
    27     9    10   ar
    28    10     1   ar
    29    22    13   ar
    30    10     5   ar
    31    22    17   ar
@<TRIPOS>MOLECULE
*****
 28 31 0 0 0
SMALL
GASTEIGER

@<TRIPOS>ATOM
      1 C          60.6287   88.4591    9.3566 C.ar    1  UNL1        0.1385
      2 C          60.3887   86.9851    9.2166 C.ar    1  UNL1        0.0370
      3 C          61.1104   86.0196   10.1092 C.ar    1  UNL1        0.0063
      4 C          62.0722   86.5281   11.1418 C.ar    1  UNL1        0.0391
      5 C          62.3123   88.0022   11.2819 C.ar    1  UNL1        0.0060
      6 C          63.2741   88.5106   12.3145 C.ar    1  UNL1        0.0002
      7 C          63.5141   89.9846   12.4545 C.ar    1  UNL1        0.0000
      8 C          62.7923   90.9502   11.5619 C.ar    1  UNL1        0.0001
      9 C          61.8305   90.4417   10.5292 C.ar    1  UNL1        0.0030
     10 C          61.5905   88.9677   10.3892 C.ar    1  UNL1        0.0341
     11 C          62.7940   85.5625   12.0344 C.2     1  UNL1        0.1955
     12 O          63.1916   85.9760   13.4205 O.2     1  UNL1       -0.2866
     13 C          63.1182   84.1836   11.5411 C.ar    1  UNL1        0.0389
     14 C          63.8012   84.0017   10.2180 C.ar    1  UNL1        0.0032
     15 C          64.1254   82.6228    9.7246 C.ar    1  UNL1        0.0001
     16 C          63.7666   81.4257   10.5543 C.ar    1  UNL1        0.0000
     17 C          63.0837   81.6076   11.8773 C.ar    1  UNL1        0.0001
     18 C          62.7249   80.4106   12.7070 C.ar    1  UNL1        0.0000
     19 C          62.0419   80.5925   14.0301 C.ar    1  UNL1        0.0000
     20 C          61.7178   81.9714   14.5235 C.ar    1  UNL1        0.0000
     21 C          62.0765   83.1684   13.6938 C.ar    1  UNL1        0.0001
     22 C          62.7595   82.9866   12.3708 C.ar    1  UNL1        0.0031
     23 O          59.9069   89.4247    8.4639 O.3     1  UNL1       -0.4755
     24 C          59.4021   88.9747    7.1251 C.3     1  UNL1        0.2054
     25 C          59.4217   89.9193    5.9600 C.3     1  UNL1        0.0473
     26 C          58.1942   90.7091    5.6141 C.3     1  UNL1        0.0038
     27 C          59.6157   92.3302    4.1645 C.3     1  UNL1        0.0000
     28 C          58.3178   91.9826    4.8311 C.3     1  UNL1        0.0001
@<TRIPOS>BOND
     1    27    28    1
     2    28    26    1
     3    26    25    1
     4    25    24    1
     5    24    23    1
     6    23     1    1
     7     1     2   ar
     8     2     3   ar
     9     3     4   ar
    10     4    11    1
    11    11    12    2
    12    11    13    1
    13    13    14   ar
    14    14    15   ar
    15    15    16   ar
    16    16    17   ar
    17    17    18   ar
    18    18    19   ar
    19    19    20   ar
    20    20    21   ar
    21    21    22   ar
    22     4     5   ar
    23     5     6   ar
    24     6     7   ar
    25     7     8   ar
    26     8     9   ar
    27     9    10   ar
    28    10     1   ar
    29    22    13   ar
    30    10     5   ar
    31    22    17   ar
@<TRIPOS>MOLECULE
*****
 28 31 0 0 0
SMALL
GASTEIGER

@<TRIPOS>ATOM
      1 C          65.1188   92.2424   11.5282 C.ar    1  UNL1        0.1385
      2 C          64.3359   91.9856   10.2748 C.ar    1  UNL1        0.0370
      3 C          63.1602   91.0545   10.3025 C.ar    1  UNL1        0.0063
      4 C          62.7675   90.3801   11.5834 C.ar    1  UNL1        0.0391
      5 C          63.5505   90.6369   12.8369 C.ar    1  UNL1        0.0060
      6 C          63.1578   89.9625   14.1179 C.ar    1  UNL1        0.0002
      7 C          63.9408   90.2193   15.3712 C.ar    1  UNL1        0.0000
      8 C          65.1165   91.1504   15.3436 C.ar    1  UNL1        0.0001
      9 C          65.5092   91.8248   14.0626 C.ar    1  UNL1        0.0030
     10 C          64.7262   91.5680   12.8093 C.ar    1  UNL1        0.0341
     11 C          61.5919   89.4490   11.6111 C.2     1  UNL1        0.1955
     12 O          60.4828   89.6703   12.5966 O.2     1  UNL1       -0.2866
     13 C          61.5252   88.2966   10.6532 C.ar    1  UNL1        0.0389
     14 C          60.8695   88.4703    9.3153 C.ar    1  UNL1        0.0032
     15 C          60.8028   87.3179    8.3575 C.ar    1  UNL1        0.0001
     16 C          61.3917   85.9918    8.7375 C.ar    1  UNL1        0.0000
     17 C          62.0474   85.8180   10.0753 C.ar    1  UNL1        0.0001
     18 C          62.6363   84.4918   10.4553 C.ar    1  UNL1        0.0000
     19 C          63.2920   84.3181   11.7932 C.ar    1  UNL1        0.0000
     20 C          63.3587   85.4705   12.7511 C.ar    1  UNL1        0.0000
     21 C          62.7698   86.7966   12.3711 C.ar    1  UNL1        0.0001
     22 C          62.1141   86.9704   11.0332 C.ar    1  UNL1        0.0031
     23 O          66.2945   93.1736   11.5006 O.3     1  UNL1       -0.4755
     24 C          66.0805   94.6464   11.3138 C.3     1  UNL1        0.2054
     25 C          66.4878   95.3066   10.0300 C.3     1  UNL1        0.0473
     26 C          67.0902   94.4903    8.9250 C.3     1  UNL1        0.0038
     27 C          68.5005   92.3121    9.0529 C.3     1  UNL1        0.0000
     28 C          68.4097   93.8073    9.1309 C.3     1  UNL1        0.0001
@<TRIPOS>BOND
     1    27    28    1
     2    28    26    1
     3    26    25    1
     4    25    24    1
     5    24    23    1
     6    23     1    1
     7     1     2   ar
     8     2     3   ar
     9     3     4   ar
    10     4    11    1
    11    11    12    2
    12    11    13    1
    13    13    14   ar
    14    14    15   ar
    15    15    16   ar
    16    16    17   ar
    17    17    18   ar
    18    18    19   ar
    19    19    20   ar
    20    20    21   ar
    21    21    22   ar
    22     4     5   ar
    23     5     6   ar
    24     6     7   ar
    25     7     8   ar
    26     8     9   ar
    27     9    10   ar
    28    10     1   ar
    29    22    13   ar
    30    10     5   ar
    31    22    17   ar
@<TRIPOS>MOLECULE
*****
 28 31 0 0 0
SMALL
GASTEIGER

@<TRIPOS>ATOM
      1 C          62.6499   85.6666   11.3739 C.ar    1  UNL1        0.1385
      2 C          62.0796   86.8745   10.6916 C.ar    1  UNL1        0.0370
      3 C          62.2541   88.2333   11.3024 C.ar    1  UNL1        0.0063
      4 C          62.9990   88.3842   12.5955 C.ar    1  UNL1        0.0391
      5 C          63.5694   87.1763   13.2780 C.ar    1  UNL1        0.0060
      6 C          64.3143   87.3272   14.5711 C.ar    1  UNL1        0.0002
      7 C          64.8846   86.1193   15.2535 C.ar    1  UNL1        0.0000
      8 C          64.7100   84.7605   14.6427 C.ar    1  UNL1        0.0001
      9 C          63.9652   84.6096   13.3495 C.ar    1  UNL1        0.0030
     10 C          63.3948   85.8175   12.6672 C.ar    1  UNL1        0.0341
     11 C          63.1735   89.7431   13.2064 C.2     1  UNL1        0.1955
     12 O          62.5656   90.0481   14.5433 O.2     1  UNL1       -0.2866
     13 C          63.9560   90.7969   12.4803 C.ar    1  UNL1        0.0389
     14 C          63.5477   91.2160   11.0991 C.ar    1  UNL1        0.0032
     15 C          64.3302   92.2698   10.3730 C.ar    1  UNL1        0.0001
     16 C          65.5210   92.9045   11.0281 C.ar    1  UNL1        0.0000
     17 C          65.9293   92.4854   12.4092 C.ar    1  UNL1        0.0001
     18 C          67.1202   93.1201   13.0643 C.ar    1  UNL1        0.0000
     19 C          67.5285   92.7010   14.4455 C.ar    1  UNL1        0.0000
     20 C          66.7460   91.6472   15.1716 C.ar    1  UNL1        0.0000
     21 C          65.5552   91.0125   14.5165 C.ar    1  UNL1        0.0001
     22 C          65.1468   91.4316   13.1354 C.ar    1  UNL1        0.0031
     23 O          62.4753   84.3077   10.7631 O.3     1  UNL1       -0.4755
     24 C          63.6126   83.6652   10.0257 C.3     1  UNL1        0.2054
     25 C          64.0984   82.3060   10.4337 C.3     1  UNL1        0.0473
     26 C          63.1609   81.3433   11.1005 C.3     1  UNL1        0.0038
     27 C          61.9031   81.3595   13.3737 C.3     1  UNL1        0.0000
     28 C          63.1735   81.1963   12.5932 C.3     1  UNL1        0.0001
@<TRIPOS>BOND
     1    27    28    1
     2    28    26    1
     3    26    25    1
     4    25    24    1
     5    24    23    1
     6    23     1    1
     7     1     2   ar
     8     2     3   ar
     9     3     4   ar
    10     4    11    1
    11    11    12    2
    12    11    13    1
    13    13    14   ar
    14    14    15   ar
    15    15    16   ar
    16    16    17   ar
    17    17    18   ar
    18    18    19   ar
    19    19    20   ar
    20    20    21   ar
    21    21    22   ar
    22     4     5   ar
    23     5     6   ar
    24     6     7   ar
    25     7     8   ar
    26     8     9   ar
    27     9    10   ar
    28    10     1   ar
    29    22    13   ar
    30    10     5   ar
    31    22    17   ar
@<TRIPOS>MOLECULE
*****
 28 31 0 0 0
SMALL
GASTEIGER

@<TRIPOS>ATOM
      1 C          64.2817   85.1714   13.6981 C.ar    1  UNL1        0.1385
      2 C          64.8006   86.0732   14.7785 C.ar    1  UNL1        0.0370
      3 C          64.4370   87.5285   14.7796 C.ar    1  UNL1        0.0063
      4 C          63.5546   88.0819   13.7003 C.ar    1  UNL1        0.0391
      5 C          63.0356   87.1800   12.6198 C.ar    1  UNL1        0.0060
      6 C          62.1532   87.7334   11.5405 C.ar    1  UNL1        0.0002
      7 C          61.6343   86.8316   10.4601 C.ar    1  UNL1        0.0000
      8 C          61.9978   85.3763   10.4590 C.ar    1  UNL1        0.0001
      9 C          62.8803   84.8229   11.5383 C.ar    1  UNL1        0.0030
     10 C          63.3992   85.7248   12.6187 C.ar    1  UNL1        0.0341
     11 C          63.1911   89.5372   13.7014 C.2     1  UNL1        0.1955
     12 O          62.1215   90.0424   14.6239 O.2     1  UNL1       -0.2866
     13 C          63.8970   90.4873   12.7800 C.ar    1  UNL1        0.0389
     14 C          63.3712   90.7182   11.3942 C.ar    1  UNL1        0.0032
     15 C          64.0772   91.6683   10.4729 C.ar    1  UNL1        0.0001
     16 C          65.3089   92.3875   10.9372 C.ar    1  UNL1        0.0000
     17 C          65.8347   92.1566   12.3229 C.ar    1  UNL1        0.0001
     18 C          67.0665   92.8757   12.7873 C.ar    1  UNL1        0.0000
     19 C          67.5923   92.6447   14.1730 C.ar    1  UNL1        0.0000
     20 C          66.8863   91.6947   15.0944 C.ar    1  UNL1        0.0000
     21 C          65.6546   90.9755   14.6300 C.ar    1  UNL1        0.0001
     22 C          65.1288   91.2064   13.2444 C.ar    1  UNL1        0.0031
     23 O          64.6452   83.7161   13.6970 O.3     1  UNL1       -0.4755
     24 C          63.9140   82.7597   14.5918 C.3     1  UNL1        0.2054
     25 C          62.4434   82.5317   14.4037 C.3     1  UNL1        0.0473
     26 C          61.9342   81.1621   14.0644 C.3     1  UNL1        0.0038
     27 C          62.8270   81.1580   11.6245 C.3     1  UNL1        0.0000
     28 C          62.5007   80.4211   12.8896 C.3     1  UNL1        0.0001
@<TRIPOS>BOND
     1    27    28    1
     2    28    26    1
     3    26    25    1
     4    25    24    1
     5    24    23    1
     6    23     1    1
     7     1     2   ar
     8     2     3   ar
     9     3     4   ar
    10     4    11    1
    11    11    12    2
    12    11    13    1
    13    13    14   ar
    14    14    15   ar
    15    15    16   ar
    16    16    17   ar
    17    17    18   ar
    18    18    19   ar
    19    19    20   ar
    20    20    21   ar
    21    21    22   ar
    22     4     5   ar
    23     5     6   ar
    24     6     7   ar
    25     7     8   ar
    26     8     9   ar
    27     9    10   ar
    28    10     1   ar
    29    22    13   ar
    30    10     5   ar
    31    22    17   ar
@<TRIPOS>MOLECULE
*****
 28 31 0 0 0
SMALL
GASTEIGER

@<TRIPOS>ATOM
      1 C          62.2698   85.5745   10.6231 C.ar    1  UNL1        0.1385
      2 C          62.9724   86.1508   11.8165 C.ar    1  UNL1        0.0370
      3 C          62.8371   87.6106   12.1339 C.ar    1  UNL1        0.0063
      4 C          61.9993   88.4941   11.2579 C.ar    1  UNL1        0.0391
      5 C          61.2967   87.9178   10.0644 C.ar    1  UNL1        0.0060
      6 C          60.4588   88.8013    9.1884 C.ar    1  UNL1        0.0002
      7 C          59.7562   88.2250    7.9950 C.ar    1  UNL1        0.0000
      8 C          59.8915   86.7653    7.6776 C.ar    1  UNL1        0.0001
      9 C          60.7293   85.8818    8.5536 C.ar    1  UNL1        0.0030
     10 C          61.4319   86.4581    9.7470 C.ar    1  UNL1        0.0341
     11 C          61.8640   89.9539   11.5753 C.2     1  UNL1        0.1955
     12 O          60.5188   90.5273   11.9094 O.2     1  UNL1       -0.2866
     13 C          63.0740   90.8403   11.5585 C.ar    1  UNL1        0.0389
     14 C          63.5204   91.4759   10.2752 C.ar    1  UNL1        0.0032
     15 C          64.7303   92.3623   10.2585 C.ar    1  UNL1        0.0001
     16 C          65.4939   92.6132   11.5250 C.ar    1  UNL1        0.0000
     17 C          65.0475   91.9776   12.8082 C.ar    1  UNL1        0.0001
     18 C          65.8111   92.2284   14.0747 C.ar    1  UNL1        0.0000
     19 C          65.3647   91.5928   15.3580 C.ar    1  UNL1        0.0000
     20 C          64.1548   90.7064   15.3748 C.ar    1  UNL1        0.0000
     21 C          63.3912   90.4556   14.1083 C.ar    1  UNL1        0.0001
     22 C          63.8375   91.0911   12.8250 C.ar    1  UNL1        0.0031
     23 O          62.4050   84.1148   10.3057 O.3     1  UNL1       -0.4755
     24 C          63.7583   83.4677   10.3138 C.3     1  UNL1        0.2054
     25 C          64.1837   82.6335   11.4856 C.3     1  UNL1        0.0473
     26 C          63.2520   82.4382   12.6449 C.3     1  UNL1        0.0038
     27 C          61.4713   81.0010   13.8751 C.3     1  UNL1        0.0000
     28 C          62.5005   81.1486   12.7940 C.3     1  UNL1        0.0001
@<TRIPOS>BOND
     1    27    28    1
     2    28    26    1
     3    26    25    1
     4    25    24    1
     5    24    23    1
     6    23     1    1
     7     1     2   ar
     8     2     3   ar
     9     3     4   ar
    10     4    11    1
    11    11    12    2
    12    11    13    1
    13    13    14   ar
    14    14    15   ar
    15    15    16   ar
    16    16    17   ar
    17    17    18   ar
    18    18    19   ar
    19    19    20   ar
    20    20    21   ar
    21    21    22   ar
    22     4     5   ar
    23     5     6   ar
    24     6     7   ar
    25     7     8   ar
    26     8     9   ar
    27     9    10   ar
    28    10     1   ar
    29    22    13   ar
    30    10     5   ar
    31    22    17   ar
