@<TRIPOS>MOLECULE
*****
 27 29 0 0 0
SMALL
GASTEIGER

@<TRIPOS>ATOM
      1 C          60.5286   87.6768    8.6641 C.ar    1  UNL1        0.0420
      2 C          60.6308   89.1472    8.9425 C.ar    1  UNL1        0.0084
      3 C          60.0851   90.1370    7.9563 C.ar    1  UNL1        0.0051
      4 C          59.4373   89.6564    6.6917 C.ar    1  UNL1        0.0536
      5 C          59.3350   88.1860    6.4133 C.ar    1  UNL1        0.0051
      6 C          59.8807   87.1963    7.3995 C.ar    1  UNL1        0.0084
      7 C          58.8916   90.6462    5.7055 C.2     1  UNL1        0.2490
      8 O          57.4349   91.0029    5.7287 O.2     1  UNL1       -0.2699
      9 N          59.8027   91.2792    4.6960 N.am    1  UNL1       -0.2760
     10 C          61.2595   90.9225    4.6727 C.3     1  UNL1        0.0937
     11 C          62.1706   91.5555    3.6632 C.3     1  UNL1        0.0217
     12 C          61.6250   92.5453    2.6770 C.3     1  UNL1        0.0060
     13 C          60.1682   92.9020    2.7002 C.3     1  UNL1        0.0492
     14 C          59.2571   92.2690    3.7098 C.3     1  UNL1        0.0961
     15 C          59.6226   93.8918    1.7140 C.3     1  UNL1        0.1388
     16 O          59.8329   95.3610    1.9314 O.3     1  UNL1       -0.3819
     17 H          59.3529   95.6422    2.7260 H       1  UNL1        0.2104
     18 C          61.6199   85.6973   10.6365 C.1     1  UNL1       -0.0597
     19 C          61.0742   86.6871    9.6503 C.1     1  UNL1       -0.0597
     20 C          63.2568   82.7280   13.5952 C.ar    1  UNL1        0.1388
     21 C          63.1213   84.1718   13.9785 C.ar    1  UNL1        0.0375
     22 C          62.5756   85.1616   12.9923 C.ar    1  UNL1        0.0114
     23 C          62.1655   84.7075   11.6228 C.ar    1  UNL1        0.0422
     24 C          62.3010   83.2637   11.2395 C.ar    1  UNL1        0.0114
     25 C          62.8467   82.2739   12.2257 C.ar    1  UNL1        0.0375
     26 C          63.7320   80.2692   14.2868 C.3     1  UNL1        0.2525
     27 O          63.8024   81.7382   14.5814 O.3     1  UNL1       -0.4714
@<TRIPOS>BOND
     1    26    27    1
     2    27    20    1
     3    20    21   ar
     4    21    22   ar
     5    22    23   ar
     6    23    18    1
     7    18    19    3
     8    19     1    1
     9     1     2   ar
    10     2     3   ar
    11     3     4   ar
    12     4     7    1
    13     7     8    2
    14     7     9   am
    15     9    10    1
    16    10    11    1
    17    11    12    1
    18    12    13    1
    19    13    15    1
    20    15    16    1
    21    13    14    1
    22     4     5   ar
    23     5     6   ar
    24    23    24   ar
    25    24    25   ar
    26    25    20   ar
    27     6     1   ar
    28    14     9    1
    29    16    17    1
@<TRIPOS>MOLECULE
*****
 27 29 0 0 0
SMALL
GASTEIGER

@<TRIPOS>ATOM
      1 C          64.0417   88.5231   13.4402 C.ar    1  UNL1        0.0420
      2 C          64.3622   88.0447   14.8252 C.ar    1  UNL1        0.0084
      3 C          63.9104   86.6862   15.2728 C.ar    1  UNL1        0.0051
      4 C          63.1380   85.8061   14.3353 C.ar    1  UNL1        0.0536
      5 C          62.8174   86.2845   12.9503 C.ar    1  UNL1        0.0051
      6 C          63.2693   87.6430   12.5027 C.ar    1  UNL1        0.0084
      7 C          62.6861   84.4477   14.7829 C.2     1  UNL1        0.2490
      8 O          62.1989   84.2442   16.1869 O.2     1  UNL1       -0.2699
      9 N          62.7215   83.2926   13.8266 N.am    1  UNL1       -0.2760
     10 C          63.2088   83.4961   12.4226 C.3     1  UNL1        0.0937
     11 C          63.2442   82.3411   11.4662 C.3     1  UNL1        0.0217
     12 C          62.7924   80.9826   11.9138 C.3     1  UNL1        0.0060
     13 C          62.3051   80.7791   13.3177 C.3     1  UNL1        0.0492
     14 C          62.2697   81.9342   14.2742 C.3     1  UNL1        0.0961
     15 C          61.8533   79.4206   13.7653 C.3     1  UNL1        0.1388
     16 O          60.4172   79.1912   14.1328 O.3     1  UNL1       -0.3819
     17 H          60.2008   79.7041   14.9271 H       1  UNL1        0.2104
     18 C          64.9454   91.2401   12.5450 C.1     1  UNL1       -0.0597
     19 C          64.4935   89.8816   12.9926 C.1     1  UNL1       -0.0597
     20 C          66.3009   95.3156   11.2022 C.ar    1  UNL1        0.1388
     21 C          65.6604   94.3776   10.2224 C.ar    1  UNL1        0.0375
     22 C          65.2086   93.0192   10.6700 C.ar    1  UNL1        0.0114
     23 C          65.3972   92.5986   12.0974 C.ar    1  UNL1        0.0422
     24 C          66.0377   93.5365   13.0772 C.ar    1  UNL1        0.0114
     25 C          66.4896   94.8950   12.6296 C.ar    1  UNL1        0.0375
     26 C          67.3561   96.8529    9.3930 C.3     1  UNL1        0.2525
     27 O          66.7528   96.6740   10.7546 O.3     1  UNL1       -0.4714
@<TRIPOS>BOND
     1    26    27    1
     2    27    20    1
     3    20    21   ar
     4    21    22   ar
     5    22    23   ar
     6    23    18    1
     7    18    19    3
     8    19     1    1
     9     1     2   ar
    10     2     3   ar
    11     3     4   ar
    12     4     7    1
    13     7     8    2
    14     7     9   am
    15     9    10    1
    16    10    11    1
    17    11    12    1
    18    12    13    1
    19    13    15    1
    20    15    16    1
    21    13    14    1
    22     4     5   ar
    23     5     6   ar
    24    23    24   ar
    25    24    25   ar
    26    25    20   ar
    27     6     1   ar
    28    14     9    1
    29    16    17    1
@<TRIPOS>MOLECULE
*****
 27 29 0 0 0
SMALL
GASTEIGER

@<TRIPOS>ATOM
      1 C          63.7389   86.8482   13.2642 C.ar    1  UNL1        0.0420
      2 C          64.5510   87.2530   14.4586 C.ar    1  UNL1        0.0084
      3 C          64.7864   88.7058   14.7481 C.ar    1  UNL1        0.0051
      4 C          64.2098   89.7539   13.8432 C.ar    1  UNL1        0.0536
      5 C          63.3977   89.3492   12.6488 C.ar    1  UNL1        0.0051
      6 C          63.1622   87.8963   12.3593 C.ar    1  UNL1        0.0084
      7 C          64.4453   91.2068   14.1327 C.2     1  UNL1        0.2490
      8 O          63.9227   91.8130   15.4013 O.2     1  UNL1       -0.2699
      9 N          65.2032   92.0534   13.1536 N.am    1  UNL1       -0.2760
     10 C          65.7258   91.4471   11.8849 C.3     1  UNL1        0.0937
     11 C          66.4838   92.2937   10.9058 C.3     1  UNL1        0.0217
     12 C          66.7193   93.7466   11.1953 C.3     1  UNL1        0.0060
     13 C          66.1967   94.3528   12.4639 C.3     1  UNL1        0.0492
     14 C          65.4387   93.5062   13.4431 C.3     1  UNL1        0.0961
     15 C          66.4322   95.8057   12.7534 C.3     1  UNL1        0.1388
     16 O          65.7000   96.8547   11.9703 O.3     1  UNL1       -0.3819
     17 H          65.9863   96.8253   11.0439 H       1  UNL1        0.2104
     18 C          63.2680   83.9425   12.6852 C.1     1  UNL1       -0.0597
     19 C          63.5034   85.3954   12.9747 C.1     1  UNL1       -0.0597
     20 C          62.5616   79.5840   11.8168 C.ar    1  UNL1        0.1388
     21 C          62.2578   80.1364   13.1778 C.ar    1  UNL1        0.0375
     22 C          62.4932   81.5892   13.4673 C.ar    1  UNL1        0.0114
     23 C          63.0325   82.4897   12.3958 C.ar    1  UNL1        0.0422
     24 C          63.3364   81.9373   11.0347 C.ar    1  UNL1        0.0114
     25 C          63.1010   80.4845   10.7452 C.ar    1  UNL1        0.0375
     26 C          62.8713   77.5188   10.2712 C.3     1  UNL1        0.2525
     27 O          62.3262   78.1312   11.5273 O.3     1  UNL1       -0.4714
@<TRIPOS>BOND
     1    26    27    1
     2    27    20    1
     3    20    21   ar
     4    21    22   ar
     5    22    23   ar
     6    23    18    1
     7    18    19    3
     8    19     1    1
     9     1     2   ar
    10     2     3   ar
    11     3     4   ar
    12     4     7    1
    13     7     8    2
    14     7     9   am
    15     9    10    1
    16    10    11    1
    17    11    12    1
    18    12    13    1
    19    13    15    1
    20    15    16    1
    21    13    14    1
    22     4     5   ar
    23     5     6   ar
    24    23    24   ar
    25    24    25   ar
    26    25    20   ar
    27     6     1   ar
    28    14     9    1
    29    16    17    1
@<TRIPOS>MOLECULE
*****
 27 29 0 0 0
SMALL
GASTEIGER

@<TRIPOS>ATOM
      1 C          64.0683   87.4921   13.5327 C.ar    1  UNL1        0.0420
      2 C          64.5937   86.6472   14.6552 C.ar    1  UNL1        0.0084
      3 C          64.1747   85.2117   14.7730 C.ar    1  UNL1        0.0051
      4 C          63.2304   84.6211   13.7683 C.ar    1  UNL1        0.0536
      5 C          62.7050   85.4660   12.6458 C.ar    1  UNL1        0.0051
      6 C          63.1240   86.9015   12.5280 C.ar    1  UNL1        0.0084
      7 C          62.8114   83.1856   13.8861 C.2     1  UNL1        0.2490
      8 O          62.2380   82.6751   15.1746 O.2     1  UNL1       -0.2699
      9 N          62.9659   82.2608   12.7154 N.am    1  UNL1       -0.2760
     10 C          63.5394   82.7713   11.4267 C.3     1  UNL1        0.0937
     11 C          63.6939   81.8465   10.2560 C.3     1  UNL1        0.0217
     12 C          63.2750   80.4110   10.3738 C.3     1  UNL1        0.0060
     13 C          62.7015   79.9004   11.6623 C.3     1  UNL1        0.0492
     14 C          62.5470   80.8253   12.8332 C.3     1  UNL1        0.0961
     15 C          62.2825   78.4649   11.7802 C.3     1  UNL1        0.1388
     16 O          62.4335   77.5409   10.6082 O.3     1  UNL1       -0.3819
     17 H          61.8414   77.8248    9.8943 H       1  UNL1        0.2104
     18 C          64.9063   90.3630   13.2971 C.1     1  UNL1       -0.0597
     19 C          64.4873   88.9276   13.4149 C.1     1  UNL1       -0.0597
     20 C          66.1631   94.6695   12.9436 C.ar    1  UNL1        0.1388
     21 C          65.5309   93.9743   11.7745 C.ar    1  UNL1        0.0375
     22 C          65.1119   92.5388   11.8923 C.ar    1  UNL1        0.0114
     23 C          65.3252   91.7985   13.1792 C.ar    1  UNL1        0.0422
     24 C          65.9575   92.4936   14.3484 C.ar    1  UNL1        0.0114
     25 C          66.3764   93.9291   14.2306 C.ar    1  UNL1        0.0375
     26 C          66.3387   96.8550   11.5498 C.3     1  UNL1        0.2525
     27 O          66.5821   96.1049   12.8258 O.3     1  UNL1       -0.4714
@<TRIPOS>BOND
     1    26    27    1
     2    27    20    1
     3    20    21   ar
     4    21    22   ar
     5    22    23   ar
     6    23    18    1
     7    18    19    3
     8    19     1    1
     9     1     2   ar
    10     2     3   ar
    11     3     4   ar
    12     4     7    1
    13     7     8    2
    14     7     9   am
    15     9    10    1
    16    10    11    1
    17    11    12    1
    18    12    13    1
    19    13    15    1
    20    15    16    1
    21    13    14    1
    22     4     5   ar
    23     5     6   ar
    24    23    24   ar
    25    24    25   ar
    26    25    20   ar
    27     6     1   ar
    28    14     9    1
    29    16    17    1
@<TRIPOS>MOLECULE
*****
 27 29 0 0 0
SMALL
GASTEIGER

@<TRIPOS>ATOM
      1 C          59.1545   94.9171   -4.5821 C.ar    1  UNL1        0.0420
      2 C          58.2420   93.7474   -4.3605 C.ar    1  UNL1        0.0084
      3 C          56.8281   93.9733   -3.9135 C.ar    1  UNL1        0.0051
      4 C          56.3266   95.3688   -3.6880 C.ar    1  UNL1        0.0536
      5 C          57.2391   96.5386   -3.9096 C.ar    1  UNL1        0.0051
      6 C          58.6530   96.3127   -4.3567 C.ar    1  UNL1        0.0084
      7 C          54.9127   95.5947   -3.2410 C.2     1  UNL1        0.2490
      8 O          54.5631   95.5053   -1.7850 O.2     1  UNL1       -0.2699
      9 N          53.8484   95.9099   -4.2498 N.am    1  UNL1       -0.2760
     10 C          54.1980   95.9994   -5.7058 C.3     1  UNL1        0.0937
     11 C          53.1337   96.3146   -6.7147 C.3     1  UNL1        0.0217
     12 C          51.7198   96.5405   -6.2676 C.3     1  UNL1        0.0060
     13 C          51.3702   96.4511   -4.8117 C.3     1  UNL1        0.0492
     14 C          52.4345   96.1358   -3.8028 C.3     1  UNL1        0.0961
     15 C          49.9563   96.6769   -4.3647 C.3     1  UNL1        0.1388
     16 O          48.8259   96.5012   -5.3348 O.3     1  UNL1       -0.3819
     17 H          48.8868   97.1769   -6.0281 H       1  UNL1        0.2104
     18 C          61.9823   94.4654   -5.4762 C.1     1  UNL1       -0.0597
     19 C          60.5684   94.6913   -5.0292 C.1     1  UNL1       -0.0597
     20 C          66.2240   93.7879   -6.8174 C.ar    1  UNL1        0.1388
     21 C          65.6816   95.1830   -6.7213 C.ar    1  UNL1        0.0375
     22 C          64.2677   95.4089   -6.2742 C.ar    1  UNL1        0.0114
     23 C          63.3962   94.2396   -5.9233 C.ar    1  UNL1        0.0422
     24 C          63.9386   92.8444   -6.0194 C.ar    1  UNL1        0.0114
     25 C          65.3525   92.6186   -6.4664 C.ar    1  UNL1        0.0375
     26 C          68.5600   94.7297   -7.4545 C.3     1  UNL1        0.2525
     27 O          67.6379   93.5620   -7.2644 O.3     1  UNL1       -0.4714
@<TRIPOS>BOND
     1    26    27    1
     2    27    20    1
     3    20    21   ar
     4    21    22   ar
     5    22    23   ar
     6    23    18    1
     7    18    19    3
     8    19     1    1
     9     1     2   ar
    10     2     3   ar
    11     3     4   ar
    12     4     7    1
    13     7     8    2
    14     7     9   am
    15     9    10    1
    16    10    11    1
    17    11    12    1
    18    12    13    1
    19    13    15    1
    20    15    16    1
    21    13    14    1
    22     4     5   ar
    23     5     6   ar
    24    23    24   ar
    25    24    25   ar
    26    25    20   ar
    27     6     1   ar
    28    14     9    1
    29    16    17    1
@<TRIPOS>MOLECULE
*****
 27 29 0 0 0
SMALL
GASTEIGER

@<TRIPOS>ATOM
      1 C          61.0521   88.0910    8.8546 C.ar    1  UNL1        0.0420
      2 C          60.5538   86.6763    8.8631 C.ar    1  UNL1        0.0084
      3 C          60.9008   85.7656   10.0033 C.ar    1  UNL1        0.0051
      4 C          61.7463   86.2697   11.1352 C.ar    1  UNL1        0.0536
      5 C          62.2446   87.6845   11.1267 C.ar    1  UNL1        0.0051
      6 C          61.8975   88.5951    9.9864 C.ar    1  UNL1        0.0084
      7 C          62.0934   85.3591   12.2755 C.2     1  UNL1        0.2490
      8 O          61.7104   85.7324   13.6768 O.2     1  UNL1       -0.2699
      9 N          62.8234   84.0750   12.0144 N.am    1  UNL1       -0.2760
     10 C          63.2064   83.7016   10.6129 C.3     1  UNL1        0.0937
     11 C          63.9365   82.4175   10.3519 C.3     1  UNL1        0.0217
     12 C          64.2836   81.5069   11.4921 C.3     1  UNL1        0.0060
     13 C          63.9006   81.8803   12.8935 C.3     1  UNL1        0.0492
     14 C          63.1705   83.1644   13.1547 C.3     1  UNL1        0.0961
     15 C          64.2477   80.9696   14.0338 C.3     1  UNL1        0.1388
     16 O          63.2612   79.9394   14.4979 O.3     1  UNL1       -0.3819
     17 H          62.4844   80.3820   14.8743 H       1  UNL1        0.2104
     18 C          60.3579   89.9123    6.5740 C.1     1  UNL1       -0.0597
     19 C          60.7050   89.0017    7.7143 C.1     1  UNL1       -0.0597
     20 C          59.3167   92.6443    3.1532 C.ar    1  UNL1        0.1388
     21 C          60.7417   92.2333    3.3779 C.ar    1  UNL1        0.0375
     22 C          61.0887   91.3227    4.5181 C.ar    1  UNL1        0.0114
     23 C          60.0109   90.8230    5.4338 C.ar    1  UNL1        0.0422
     24 C          58.5859   91.2340    5.2091 C.ar    1  UNL1        0.0114
     25 C          58.2388   92.1446    4.0688 C.ar    1  UNL1        0.0375
     26 C          59.9993   93.8785    0.9713 C.3     1  UNL1        0.2525
     27 O          58.9696   93.5550    2.0129 O.3     1  UNL1       -0.4714
@<TRIPOS>BOND
     1    26    27    1
     2    27    20    1
     3    20    21   ar
     4    21    22   ar
     5    22    23   ar
     6    23    18    1
     7    18    19    3
     8    19     1    1
     9     1     2   ar
    10     2     3   ar
    11     3     4   ar
    12     4     7    1
    13     7     8    2
    14     7     9   am
    15     9    10    1
    16    10    11    1
    17    11    12    1
    18    12    13    1
    19    13    15    1
    20    15    16    1
    21    13    14    1
    22     4     5   ar
    23     5     6   ar
    24    23    24   ar
    25    24    25   ar
    26    25    20   ar
    27     6     1   ar
    28    14     9    1
    29    16    17    1
@<TRIPOS>MOLECULE
*****
 27 29 0 0 0
SMALL
GASTEIGER

@<TRIPOS>ATOM
      1 C          60.0999   90.1717    6.5735 C.ar    1  UNL1        0.0420
      2 C          59.3486   88.8754    6.6445 C.ar    1  UNL1        0.0084
      3 C          59.4800   87.9977    7.8537 C.ar    1  UNL1        0.0051
      4 C          60.3626   88.4162    8.9920 C.ar    1  UNL1        0.0536
      5 C          61.1138   89.7126    8.9210 C.ar    1  UNL1        0.0051
      6 C          60.9825   90.5903    7.7118 C.ar    1  UNL1        0.0084
      7 C          60.4939   87.5385   10.2013 C.2     1  UNL1        0.2490
      8 O          59.6673   87.8149   11.4220 O.2     1  UNL1       -0.2699
      9 N          61.4518   86.3843   10.1898 N.am    1  UNL1       -0.2760
     10 C          62.2785   86.1078    8.9690 C.3     1  UNL1        0.0937
     11 C          63.2364   84.9537    8.9575 C.3     1  UNL1        0.0217
     12 C          63.3678   84.0759   10.1668 C.3     1  UNL1        0.0060
     13 C          62.5412   84.3523   11.3875 C.3     1  UNL1        0.0492
     14 C          61.5832   85.5066   11.3990 C.3     1  UNL1        0.0961
     15 C          62.6725   83.4746   12.5968 C.3     1  UNL1        0.1388
     16 O          62.3731   82.0083   12.4953 O.3     1  UNL1       -0.3819
     17 H          61.4301   81.8832   12.3056 H       1  UNL1        0.2104
     18 C          59.8372   91.9273    4.1550 C.1     1  UNL1       -0.0597
     19 C          59.9686   91.0495    5.3642 C.1     1  UNL1       -0.0597
     20 C          59.4432   94.5605    0.5272 C.ar    1  UNL1        0.1388
     21 C          60.1589   95.0642    1.7454 C.ar    1  UNL1        0.0375
     22 C          60.2902   94.1865    2.9547 C.ar    1  UNL1        0.0114
     23 C          59.7059   92.8050    2.9457 C.ar    1  UNL1        0.0422
     24 C          58.9902   92.3013    1.7275 C.ar    1  UNL1        0.0114
     25 C          58.8589   93.1791    0.5183 C.ar    1  UNL1        0.0375
     26 C          57.9607   95.6907   -1.2824 C.3     1  UNL1        0.2525
     27 O          59.3119   95.4383   -0.6820 O.3     1  UNL1       -0.4714
@<TRIPOS>BOND
     1    26    27    1
     2    27    20    1
     3    20    21   ar
     4    21    22   ar
     5    22    23   ar
     6    23    18    1
     7    18    19    3
     8    19     1    1
     9     1     2   ar
    10     2     3   ar
    11     3     4   ar
    12     4     7    1
    13     7     8    2
    14     7     9   am
    15     9    10    1
    16    10    11    1
    17    11    12    1
    18    12    13    1
    19    13    15    1
    20    15    16    1
    21    13    14    1
    22     4     5   ar
    23     5     6   ar
    24    23    24   ar
    25    24    25   ar
    26    25    20   ar
    27     6     1   ar
    28    14     9    1
    29    16    17    1
@<TRIPOS>MOLECULE
*****
 27 29 0 0 0
SMALL
GASTEIGER

@<TRIPOS>ATOM
      1 C          63.8279   86.5371   13.4798 C.ar    1  UNL1        0.0420
      2 C          64.4460   86.7305   14.8327 C.ar    1  UNL1        0.0084
      3 C          64.6845   88.1153   15.3574 C.ar    1  UNL1        0.0051
      4 C          64.3048   89.3068   14.5291 C.ar    1  UNL1        0.0536
      5 C          63.6867   89.1135   13.1761 C.ar    1  UNL1        0.0051
      6 C          63.4482   87.7286   12.6515 C.ar    1  UNL1        0.0084
      7 C          64.5432   90.6917   15.0537 C.2     1  UNL1        0.2490
      8 O          63.4395   91.4296   15.7518 O.2     1  UNL1       -0.2699
      9 N          65.8853   91.3387   14.8803 N.am    1  UNL1       -0.2760
     10 C          66.9891   90.6008   14.1822 C.3     1  UNL1        0.0937
     11 C          68.3312   91.2478   14.0087 C.3     1  UNL1        0.0217
     12 C          68.5696   92.6327   14.5334 C.3     1  UNL1        0.0060
     13 C          67.4659   93.3706   15.2315 C.3     1  UNL1        0.0492
     14 C          66.1237   92.7236   15.4049 C.3     1  UNL1        0.0961
     15 C          67.7043   94.7554   15.7561 C.3     1  UNL1        0.1388
     16 O          69.0109   95.0952   16.4098 O.3     1  UNL1       -0.3819
     17 H          69.1007   94.5917   17.2340 H       1  UNL1        0.2104
     18 C          63.3511   83.7673   12.4305 C.1     1  UNL1       -0.0597
     19 C          63.5895   85.1522   12.9551 C.1     1  UNL1       -0.0597
     20 C          62.6358   79.6127   10.8565 C.ar    1  UNL1        0.1388
     21 C          62.3532   79.9286   12.2954 C.ar    1  UNL1        0.0375
     22 C          62.5917   81.3134   12.8200 C.ar    1  UNL1        0.0114
     23 C          63.1126   82.3824   11.9058 C.ar    1  UNL1        0.0422
     24 C          63.3952   82.0665   10.4670 C.ar    1  UNL1        0.0114
     25 C          63.1567   80.6817    9.9423 C.ar    1  UNL1        0.0375
     26 C          63.2519   77.0893   10.8045 C.3     1  UNL1        0.2525
     27 O          62.3973   78.2278   10.3319 O.3     1  UNL1       -0.4714
@<TRIPOS>BOND
     1    26    27    1
     2    27    20    1
     3    20    21   ar
     4    21    22   ar
     5    22    23   ar
     6    23    18    1
     7    18    19    3
     8    19     1    1
     9     1     2   ar
    10     2     3   ar
    11     3     4   ar
    12     4     7    1
    13     7     8    2
    14     7     9   am
    15     9    10    1
    16    10    11    1
    17    11    12    1
    18    12    13    1
    19    13    15    1
    20    15    16    1
    21    13    14    1
    22     4     5   ar
    23     5     6   ar
    24    23    24   ar
    25    24    25   ar
    26    25    20   ar
    27     6     1   ar
    28    14     9    1
    29    16    17    1
@<TRIPOS>MOLECULE
*****
 27 29 0 0 0
SMALL
GASTEIGER

@<TRIPOS>ATOM
      1 C          60.3205   91.5467    4.3791 C.ar    1  UNL1        0.0420
      2 C          59.0107   92.1644    3.9881 C.ar    1  UNL1        0.0084
      3 C          58.9270   93.0385    2.7721 C.ar    1  UNL1        0.0051
      4 C          60.1531   93.2951    1.9469 C.ar    1  UNL1        0.0536
      5 C          61.4629   92.6774    2.3379 C.ar    1  UNL1        0.0051
      6 C          61.5466   91.8032    3.5539 C.ar    1  UNL1        0.0084
      7 C          60.0693   94.1692    0.7309 C.2     1  UNL1        0.2490
      8 O          60.9748   95.3576    0.5977 O.2     1  UNL1       -0.2699
      9 N          59.0801   93.8550   -0.3520 N.am    1  UNL1       -0.2760
     10 C          58.1746   92.6665   -0.2189 C.3     1  UNL1        0.0937
     11 C          57.1854   92.3523   -1.3018 C.3     1  UNL1        0.0217
     12 C          57.1016   93.2265   -2.5178 C.3     1  UNL1        0.0060
     13 C          58.0071   94.4149   -2.6510 C.3     1  UNL1        0.0492
     14 C          58.9964   94.7292   -1.5681 C.3     1  UNL1        0.0961
     15 C          57.9234   95.2890   -3.8671 C.3     1  UNL1        0.1388
     16 O          56.5846   95.6715   -4.4251 O.3     1  UNL1       -0.3819
     17 H          56.1371   94.8800   -4.7630 H       1  UNL1        0.2104
     18 C          60.4880   89.7984    6.8112 C.1     1  UNL1       -0.0597
     19 C          60.4043   90.6725    5.5951 C.1     1  UNL1       -0.0597
     20 C          60.7392   87.1759   10.4594 C.ar    1  UNL1        0.1388
     21 C          60.2304   86.6137    9.1652 C.ar    1  UNL1        0.0375
     22 C          60.1467   87.4879    7.9491 C.ar    1  UNL1        0.0114
     23 C          60.5718   88.9242    8.0273 C.ar    1  UNL1        0.0422
     24 C          61.0806   89.4864    9.3215 C.ar    1  UNL1        0.0114
     25 C          61.1643   88.6122   10.5375 C.ar    1  UNL1        0.0375
     26 C          62.0508   85.4763   11.9227 C.3     1  UNL1        0.2525
     27 O          60.8230   86.3017   11.6755 O.3     1  UNL1       -0.4714
@<TRIPOS>BOND
     1    26    27    1
     2    27    20    1
     3    20    21   ar
     4    21    22   ar
     5    22    23   ar
     6    23    18    1
     7    18    19    3
     8    19     1    1
     9     1     2   ar
    10     2     3   ar
    11     3     4   ar
    12     4     7    1
    13     7     8    2
    14     7     9   am
    15     9    10    1
    16    10    11    1
    17    11    12    1
    18    12    13    1
    19    13    15    1
    20    15    16    1
    21    13    14    1
    22     4     5   ar
    23     5     6   ar
    24    23    24   ar
    25    24    25   ar
    26    25    20   ar
    27     6     1   ar
    28    14     9    1
    29    16    17    1
