@<TRIPOS>MOLECULE
*****
 39 43 0 0 0
SMALL
GASTEIGER

@<TRIPOS>ATOM
      1 C          57.2480   95.3238   -5.0032 C.2     1  UNL1        0.0068
      2 C          58.1612   94.8758   -6.1056 C.2     1  UNL1       -0.0005
      3 C          59.6444   94.6566   -6.0605 C.ar    1  UNL1        0.0150
      4 C          60.1725   94.2058   -7.3901 C.ar    1  UNL1        0.0028
      5 C          61.6369   93.9297   -7.5610 C.ar    1  UNL1        0.0207
      6 C          62.5732   94.1043   -6.4022 C.ar    1  UNL1        0.0985
      7 N          62.0452   94.5551   -5.0726 N.ar    1  UNL1       -0.2465
      8 C          60.5808   94.8312   -4.9017 C.ar    1  UNL1        0.0776
      9 C          60.2652   95.2682   -3.5019 C.3     1  UNL1        0.1210
     10 C          58.9354   95.6386   -2.9151 C.ar    1  UNL1       -0.0023
     11 C          59.0610   96.0193   -1.4697 C.ar    1  UNL1       -0.0017
     12 C          57.8438   96.4247   -0.6924 C.ar    1  UNL1        0.0111
     13 C          56.5011   96.4495   -1.3605 C.ar    1  UNL1        0.0576
     14 CL         55.2840   96.8550   -0.5832 Cl      1  UNL1       -0.0822
     15 C          56.3755   96.0688   -2.8059 C.ar    1  UNL1        0.0109
     16 C          57.5926   95.6633   -3.5833 C.ar    1  UNL1       -0.0030
     17 N          61.4341   95.3451   -2.5650 N.3     1  UNL1       -0.2626
     18 C          61.8227   94.1468   -1.7507 C.3     1  UNL1        0.0945
     19 C          62.9916   94.2238   -0.8138 C.3     1  UNL1        0.1141
     20 N          63.7719   95.4989   -0.6912 N.am    1  UNL1       -0.2432
     21 C          64.9408   95.5759    0.2457 C.2     1  UNL1        0.4047
     22 O          65.7211   96.8510    0.3683 O.2     1  UNL1       -0.2262
     23 C          63.3833   96.6972   -1.5055 C.3     1  UNL1        0.1141
     24 C          62.2144   96.6203   -2.4424 C.3     1  UNL1        0.0945
     25 O          65.3293   94.3775    1.0600 O.3     1  UNL1       -0.4418
     26 C          64.2956   93.6560    1.8729 C.3     1  UNL1        0.1378
     27 C          63.9526   94.9370    2.5738 C.3     1  UNL1        0.0437
     28 C          64.6386   92.3749    1.1720 C.3     1  UNL1        0.0437
     29 C          63.2619   92.9344    2.6858 C.3     1  UNL1        0.0437
     30 C          55.7987   95.4490   -5.3689 C.3     1  UNL1        0.1415
     31 C          54.3495   95.5741   -5.7347 C.3     1  UNL1        0.0401
     32 O          55.7883   96.8552   -4.8470 O.3     1  UNL1       -0.3771
     33 H          54.9025   97.2346   -4.9575 H       1  UNL1        0.2112
     34 C          55.9927   92.7354   -3.5667 C.3     1  UNL1        0.1318
     35 N          55.8982   92.7954   -5.0625 N.ar    1  UNL1       -0.3082
     36 C          55.8763   91.6188   -5.9925 C.ar    1  UNL1        0.1784
     37 N          55.7736   92.1388   -7.3958 N.ar    1  UNL1       -0.2226
     38 C          55.7321   93.6370   -7.3329 C.ar    1  UNL1        0.1160
     39 C          55.8091   94.0428   -5.8909 C.ar    1  UNL1        0.0859
@<TRIPOS>BOND
     1    34    35    1
     2    35    36   ar
     3    36    37   ar
     4    37    38   ar
     5    38    39   ar
     6    39    30    1
     7    30    31    1
     8    30    32    1
     9    30     1    1
    10     1     2    2
    11     2     3    1
    12     3     4   ar
    13     4     5   ar
    14     5     6   ar
    15     6     7   ar
    16     7     8   ar
    17     8     9    1
    18     9    17    1
    19    17    18    1
    20    18    19    1
    21    19    20    1
    22    20    21   am
    23    21    22    2
    24    21    25    1
    25    25    26    1
    26    26    27    1
    27    26    28    1
    28    26    29    1
    29    20    23    1
    30    23    24    1
    31     9    10    1
    32    10    11   ar
    33    11    12   ar
    34    12    13   ar
    35    13    14    1
    36    13    15   ar
    37    15    16   ar
    38    39    35   ar
    39    16     1    1
    40     8     3   ar
    41    24    17    1
    42    16    10   ar
    43    32    33    1
@<TRIPOS>MOLECULE
*****
 39 43 0 0 0
SMALL
GASTEIGER

@<TRIPOS>ATOM
      1 C          64.1325   86.1131   13.8761 C.2     1  UNL1        0.0068
      2 C          64.3975   87.5535   14.1999 C.2     1  UNL1       -0.0005
      3 C          63.9346   88.7775   13.4666 C.ar    1  UNL1        0.0150
      4 C          64.4246   90.0311   14.1286 C.ar    1  UNL1        0.0028
      5 C          64.0724   91.3704   13.5524 C.ar    1  UNL1        0.0207
      6 C          63.2302   91.4562   12.3141 C.ar    1  UNL1        0.0985
      7 N          62.7402   90.2026   11.6521 N.ar    1  UNL1       -0.2465
      8 C          63.0924   88.8633   12.2283 C.ar    1  UNL1        0.0776
      9 C          62.5051   87.7462   11.4175 C.3     1  UNL1        0.1210
     10 C          62.6149   86.2676   11.6447 C.ar    1  UNL1       -0.0023
     11 C          61.8742   85.4951   10.5938 C.ar    1  UNL1       -0.0017
     12 C          61.8578   83.9958   10.6369 C.ar    1  UNL1        0.0111
     13 C          62.5820   83.2690   11.7310 C.ar    1  UNL1        0.0576
     14 CL         62.5656   81.7697   11.7741 Cl      1  UNL1       -0.0822
     15 C          63.3228   84.0415   12.7820 C.ar    1  UNL1        0.0109
     16 C          63.3392   85.5408   12.7389 C.ar    1  UNL1       -0.0030
     17 N          61.7017   88.1630   10.2213 N.3     1  UNL1       -0.2626
     18 C          61.3572   89.6084   10.0157 C.3     1  UNL1        0.0945
     19 C          60.5538   90.0250    8.8195 C.3     1  UNL1        0.1141
     20 N          60.0949   88.9964    7.8289 N.am    1  UNL1       -0.2432
     21 C          59.2915   89.4131    6.6327 C.2     1  UNL1        0.4047
     22 O          58.8325   88.3845    5.6421 O.2     1  UNL1       -0.2262
     23 C          60.4393   87.5510    8.0345 C.3     1  UNL1        0.1141
     24 C          61.2427   87.1343    9.2307 C.3     1  UNL1        0.0945
     25 O          58.9470   90.8585    6.4272 O.3     1  UNL1       -0.4418
     26 C          59.0436   91.4652    5.0587 C.3     1  UNL1        0.1378
     27 C          60.5282   91.2509    5.0685 C.3     1  UNL1        0.0437
     28 C          57.5590   91.6795    5.0489 C.3     1  UNL1        0.0437
     29 C          59.1403   92.0720    3.6903 C.3     1  UNL1        0.0437
     30 C          64.7414   85.1127   14.8133 C.3     1  UNL1        0.1415
     31 C          65.3502   84.1123   15.7505 C.3     1  UNL1        0.0401
     32 O          65.7336   84.7266   13.7566 O.3     1  UNL1       -0.3771
     33 H          66.3187   84.0334   14.1003 H       1  UNL1        0.2112
     34 C          61.8977   83.6267   15.4088 C.3     1  UNL1        0.1318
     35 N          62.4421   84.8157   16.1437 N.ar    1  UNL1       -0.3082
     36 C          61.7749   85.5303   17.2812 C.ar    1  UNL1        0.1784
     37 N          62.6697   86.6551   17.7106 N.ar    1  UNL1       -0.2226
     38 C          63.8899   86.6355   16.8383 C.ar    1  UNL1        0.1160
     39 C          63.7492   85.4987   15.8699 C.ar    1  UNL1        0.0859
@<TRIPOS>BOND
     1    34    35    1
     2    35    36   ar
     3    36    37   ar
     4    37    38   ar
     5    38    39   ar
     6    39    30    1
     7    30    31    1
     8    30    32    1
     9    30     1    1
    10     1     2    2
    11     2     3    1
    12     3     4   ar
    13     4     5   ar
    14     5     6   ar
    15     6     7   ar
    16     7     8   ar
    17     8     9    1
    18     9    17    1
    19    17    18    1
    20    18    19    1
    21    19    20    1
    22    20    21   am
    23    21    22    2
    24    21    25    1
    25    25    26    1
    26    26    27    1
    27    26    28    1
    28    26    29    1
    29    20    23    1
    30    23    24    1
    31     9    10    1
    32    10    11   ar
    33    11    12   ar
    34    12    13   ar
    35    13    14    1
    36    13    15   ar
    37    15    16   ar
    38    39    35   ar
    39    16     1    1
    40     8     3   ar
    41    24    17    1
    42    16    10   ar
    43    32    33    1
@<TRIPOS>MOLECULE
*****
 39 43 0 0 0
SMALL
GASTEIGER

@<TRIPOS>ATOM
      1 C          62.9652   84.6343   11.4604 C.2     1  UNL1        0.0068
      2 C          62.1643   85.5131   10.5459 C.2     1  UNL1       -0.0005
      3 C          61.9505   86.9957   10.6238 C.ar    1  UNL1        0.0150
      4 C          61.0775   87.4830    9.5056 C.ar    1  UNL1        0.0028
      5 C          60.7388   88.9404    9.3991 C.ar    1  UNL1        0.0207
      6 C          61.2731   89.9104   10.4107 C.ar    1  UNL1        0.0985
      7 N          62.1461   89.4232   11.5289 N.ar    1  UNL1       -0.2465
      8 C          62.4848   87.9658   11.6355 C.ar    1  UNL1        0.0776
      9 C          63.3649   87.6928   12.8191 C.3     1  UNL1        0.1210
     10 C          63.9281   86.3824   13.2834 C.ar    1  UNL1       -0.0023
     11 C          64.7636   86.5514   14.5176 C.ar    1  UNL1       -0.0017
     12 C          65.4213   85.3593   15.1471 C.ar    1  UNL1        0.0111
     13 C          65.2434   83.9982   14.5425 C.ar    1  UNL1        0.0576
     14 CL         65.9011   82.8060   15.1720 Cl      1  UNL1       -0.0822
     15 C          64.4079   83.8291   13.3082 C.ar    1  UNL1        0.0109
     16 C          63.7502   85.0212   12.6787 C.ar    1  UNL1       -0.0030
     17 N          63.7301   88.8884   13.6480 N.3     1  UNL1       -0.2626
     18 C          64.5923   89.9694   13.0664 C.3     1  UNL1        0.0945
     19 C          64.9575   91.1649   13.8954 C.3     1  UNL1        0.1141
     20 N          64.4606   91.2796   15.3059 N.am    1  UNL1       -0.2432
     21 C          64.8258   92.4752   16.1349 C.2     1  UNL1        0.4047
     22 O          64.3289   92.5899   17.5456 O.2     1  UNL1       -0.2262
     23 C          63.5984   90.1987   15.8876 C.3     1  UNL1        0.1141
     24 C          63.2332   89.0031   15.0587 C.3     1  UNL1        0.0945
     25 O          65.6879   93.5561   15.5532 O.3     1  UNL1       -0.4418
     26 C          67.0717   93.2341   15.0719 C.3     1  UNL1        0.1378
     27 C          67.3912   92.6189   16.4021 C.3     1  UNL1        0.0437
     28 C          66.7521   93.8492   13.7417 C.3     1  UNL1        0.0437
     29 C          68.4554   92.9121   14.5906 C.3     1  UNL1        0.0437
     30 C          62.9837   83.1759   11.1103 C.3     1  UNL1        0.1415
     31 C          63.0021   81.7175   10.7603 C.3     1  UNL1        0.0401
     32 O          63.5589   83.5060    9.7649 O.3     1  UNL1       -0.3771
     33 H          63.6942   82.6880    9.2615 H       1  UNL1        0.2112
     34 C          62.7497   80.1948   12.4172 C.3     1  UNL1        0.1318
     35 N          62.3009   81.4754   13.0564 N.ar    1  UNL1       -0.3082
     36 C          61.6657   81.6106   14.4085 C.ar    1  UNL1        0.1784
     37 N          61.3807   83.0645   14.6435 N.ar    1  UNL1       -0.2226
     38 C          61.8397   83.8278   13.4365 C.ar    1  UNL1        0.1160
     39 C          62.4084   82.8457   12.4556 C.ar    1  UNL1        0.0859
@<TRIPOS>BOND
     1    34    35    1
     2    35    36   ar
     3    36    37   ar
     4    37    38   ar
     5    38    39   ar
     6    39    30    1
     7    30    31    1
     8    30    32    1
     9    30     1    1
    10     1     2    2
    11     2     3    1
    12     3     4   ar
    13     4     5   ar
    14     5     6   ar
    15     6     7   ar
    16     7     8   ar
    17     8     9    1
    18     9    17    1
    19    17    18    1
    20    18    19    1
    21    19    20    1
    22    20    21   am
    23    21    22    2
    24    21    25    1
    25    25    26    1
    26    26    27    1
    27    26    28    1
    28    26    29    1
    29    20    23    1
    30    23    24    1
    31     9    10    1
    32    10    11   ar
    33    11    12   ar
    34    12    13   ar
    35    13    14    1
    36    13    15   ar
    37    15    16   ar
    38    39    35   ar
    39    16     1    1
    40     8     3   ar
    41    24    17    1
    42    16    10   ar
    43    32    33    1
@<TRIPOS>MOLECULE
*****
 39 43 0 0 0
SMALL
GASTEIGER

@<TRIPOS>ATOM
      1 C          62.2533   85.2015   12.6017 C.2     1  UNL1        0.0068
      2 C          61.4202   85.5032   11.3913 C.2     1  UNL1       -0.0005
      3 C          61.3401   86.7781   10.6051 C.ar    1  UNL1        0.0150
      4 C          60.3784   86.6565    9.4604 C.ar    1  UNL1        0.0028
      5 C          60.1500   87.8232    8.5458 C.ar    1  UNL1        0.0207
      6 C          60.8831   89.1114    8.7758 C.ar    1  UNL1        0.0985
      7 N          61.8448   89.2330    9.9205 N.ar    1  UNL1       -0.2465
      8 C          62.0733   88.0663   10.8352 C.ar    1  UNL1        0.0776
      9 C          63.0676   88.3977   11.9082 C.3     1  UNL1        0.1210
     10 C          63.5744   87.5229   13.0163 C.ar    1  UNL1       -0.0023
     11 C          64.5672   88.2473   13.8762 C.ar    1  UNL1       -0.0017
     12 C          65.1977   87.5493   15.0446 C.ar    1  UNL1        0.0111
     13 C          64.8353   86.1269   15.3533 C.ar    1  UNL1        0.0576
     14 CL         65.4657   85.4289   16.5218 Cl      1  UNL1       -0.0822
     15 C          63.8424   85.4024   14.4934 C.ar    1  UNL1        0.0109
     16 C          63.2120   86.1004   13.3249 C.ar    1  UNL1       -0.0030
     17 N          63.6295   89.7880   11.8679 N.3     1  UNL1       -0.2626
     18 C          63.5794   90.5807   10.5954 C.3     1  UNL1        0.0945
     19 C          64.1412   91.9708   10.5552 C.3     1  UNL1        0.1141
     20 N          64.7532   92.5684   11.7873 N.am    1  UNL1       -0.2432
     21 C          65.3151   93.9586   11.7471 C.2     1  UNL1        0.4047
     22 O          65.9271   94.5563   12.9792 O.2     1  UNL1       -0.2262
     23 C          64.8034   91.7758   13.0599 C.3     1  UNL1        0.1141
     24 C          64.2415   90.3856   13.1002 C.3     1  UNL1        0.0945
     25 O          65.2649   94.7512   10.4746 O.3     1  UNL1       -0.4418
     26 C          66.3662   95.7159   10.1480 C.3     1  UNL1        0.1378
     27 C          67.2230   94.5784    9.6769 C.3     1  UNL1        0.0437
     28 C          65.5093   96.8535   10.6190 C.3     1  UNL1        0.0437
     29 C          67.4674   96.6807    9.8214 C.3     1  UNL1        0.0437
     30 C          62.1085   83.8181   13.1632 C.3     1  UNL1        0.1415
     31 C          61.9637   82.4348   13.7246 C.3     1  UNL1        0.0401
     32 O          61.3736   84.3752   14.3463 O.3     1  UNL1       -0.3771
     33 H          61.1269   83.6518   14.9436 H       1  UNL1        0.2112
     34 C          62.5108   80.6546   12.4708 C.3     1  UNL1        0.1318
     35 N          63.0283   81.8069   11.6618 N.ar    1  UNL1       -0.3082
     36 C          63.8215   81.7075   10.3927 C.ar    1  UNL1        0.1784
     37 N          64.1269   83.1001    9.9265 N.ar    1  UNL1       -0.2226
     38 C          63.5223   84.0603   10.9077 C.ar    1  UNL1        0.1160
     39 C          62.8433   83.2611   11.9802 C.ar    1  UNL1        0.0859
@<TRIPOS>BOND
     1    34    35    1
     2    35    36   ar
     3    36    37   ar
     4    37    38   ar
     5    38    39   ar
     6    39    30    1
     7    30    31    1
     8    30    32    1
     9    30     1    1
    10     1     2    2
    11     2     3    1
    12     3     4   ar
    13     4     5   ar
    14     5     6   ar
    15     6     7   ar
    16     7     8   ar
    17     8     9    1
    18     9    17    1
    19    17    18    1
    20    18    19    1
    21    19    20    1
    22    20    21   am
    23    21    22    2
    24    21    25    1
    25    25    26    1
    26    26    27    1
    27    26    28    1
    28    26    29    1
    29    20    23    1
    30    23    24    1
    31     9    10    1
    32    10    11   ar
    33    11    12   ar
    34    12    13   ar
    35    13    14    1
    36    13    15   ar
    37    15    16   ar
    38    39    35   ar
    39    16     1    1
    40     8     3   ar
    41    24    17    1
    42    16    10   ar
    43    32    33    1
@<TRIPOS>MOLECULE
*****
 39 43 0 0 0
SMALL
GASTEIGER

@<TRIPOS>ATOM
      1 C          62.3373   85.2976   11.8440 C.2     1  UNL1        0.0068
      2 C          61.5434   86.2793   11.0340 C.2     1  UNL1       -0.0005
      3 C          61.4846   87.7721   11.1686 C.ar    1  UNL1        0.0150
      4 C          60.5615   88.3780   10.1534 C.ar    1  UNL1        0.0028
      5 C          60.3591   89.8637   10.1161 C.ar    1  UNL1        0.0207
      6 C          61.0797   90.7436   11.0941 C.ar    1  UNL1        0.0985
      7 N          62.0029   90.1378   12.1093 N.ar    1  UNL1       -0.2465
      8 C          62.2053   88.6520   12.1465 C.ar    1  UNL1        0.0776
      9 C          63.1627   88.2563   13.2314 C.3     1  UNL1        0.1210
     10 C          63.6360   86.8832   13.6062 C.ar    1  UNL1       -0.0023
     11 C          64.5975   86.9299   14.7565 C.ar    1  UNL1       -0.0017
     12 C          65.1917   85.6598   15.2894 C.ar    1  UNL1        0.0111
     13 C          64.8243   84.3431   14.6720 C.ar    1  UNL1        0.0576
     14 CL         65.4185   83.0731   15.2049 Cl      1  UNL1       -0.0822
     15 C          63.8628   84.2964   13.5216 C.ar    1  UNL1        0.0109
     16 C          63.2686   85.5665   12.9888 C.ar    1  UNL1       -0.0030
     17 N          63.7207   89.3829   14.0496 N.3     1  UNL1       -0.2626
     18 C          64.7946   90.2626   13.4811 C.3     1  UNL1        0.0945
     19 C          65.3525   91.3892   14.2994 C.3     1  UNL1        0.1141
     20 N          64.8368   91.6361   15.6860 N.am    1  UNL1       -0.2432
     21 C          65.3947   92.7626   16.5043 C.2     1  UNL1        0.4047
     22 O          64.8789   93.0096   17.8910 O.2     1  UNL1       -0.2262
     23 C          63.7629   90.7565   16.2546 C.3     1  UNL1        0.1141
     24 C          63.2049   89.6299   15.4363 C.3     1  UNL1        0.0945
     25 O          66.4685   93.6422   15.9358 O.3     1  UNL1       -0.4418
     26 C          67.6287   93.0330   15.2057 C.3     1  UNL1        0.1378
     27 C          67.1576   93.6652   13.9296 C.3     1  UNL1        0.0437
     28 C          68.0998   92.4009   16.4819 C.3     1  UNL1        0.0437
     29 C          68.7888   92.4238   14.4757 C.3     1  UNL1        0.0437
     30 C          62.1790   83.8568   11.4583 C.3     1  UNL1        0.1415
     31 C          62.0207   82.4160   11.0726 C.3     1  UNL1        0.0401
     32 O          61.8603   83.5105   12.8825 O.3     1  UNL1       -0.3771
     33 H          61.6951   82.5574   12.9543 H       1  UNL1        0.2112
     34 C          64.8795   83.0059    9.8357 C.3     1  UNL1        0.1318
     35 N          63.7390   83.8120    9.2881 N.ar    1  UNL1       -0.3082
     36 C          63.6396   84.3684    7.8988 C.ar    1  UNL1        0.1784
     37 N          62.3369   85.1034    7.7859 N.ar    1  UNL1       -0.2226
     38 C          61.6312   85.0012    9.1056 C.ar    1  UNL1        0.1160
     39 C          62.4978   84.2030   10.0341 C.ar    1  UNL1        0.0859
@<TRIPOS>BOND
     1    34    35    1
     2    35    36   ar
     3    36    37   ar
     4    37    38   ar
     5    38    39   ar
     6    39    30    1
     7    30    31    1
     8    30    32    1
     9    30     1    1
    10     1     2    2
    11     2     3    1
    12     3     4   ar
    13     4     5   ar
    14     5     6   ar
    15     6     7   ar
    16     7     8   ar
    17     8     9    1
    18     9    17    1
    19    17    18    1
    20    18    19    1
    21    19    20    1
    22    20    21   am
    23    21    22    2
    24    21    25    1
    25    25    26    1
    26    26    27    1
    27    26    28    1
    28    26    29    1
    29    20    23    1
    30    23    24    1
    31     9    10    1
    32    10    11   ar
    33    11    12   ar
    34    12    13   ar
    35    13    14    1
    36    13    15   ar
    37    15    16   ar
    38    39    35   ar
    39    16     1    1
    40     8     3   ar
    41    24    17    1
    42    16    10   ar
    43    32    33    1
