@<TRIPOS>MOLECULE
*****
 44 49 0 0 0
SMALL
GASTEIGER

@<TRIPOS>ATOM
      1 C          64.4221   90.3648   13.4233 C.ar    1  UNL1        0.1348
      2 C          63.6811   91.1900   12.4134 C.ar    1  UNL1        0.0346
      3 C          62.7804   90.5239   11.4159 C.ar    1  UNL1        0.0065
      4 C          62.6206   89.0325   11.4284 C.ar    1  UNL1        0.0433
      5 C          63.3616   88.2073   12.4383 C.ar    1  UNL1        0.1256
      6 N          64.2623   88.8735   13.4358 N.ar    1  UNL1       -0.2222
      7 C          61.7198   88.3663   10.4310 C.ar    1  UNL1        0.0865
      8 C          60.2711   88.6812   10.2031 C.ar    1  UNL1        0.1163
      9 N          59.7655   87.7777    9.1176 N.ar    1  UNL1       -0.2250
     10 C          60.9018   86.9045    8.6747 C.ar    1  UNL1        0.1475
     11 C          60.9928   85.8251    7.6370 C.ar    1  UNL1        0.0332
     12 C          62.2916   85.1095    7.4112 C.ar    1  UNL1       -0.0174
     13 C          62.3826   84.0301    6.3736 C.3     1  UNL1        0.0312
     14 C          63.4995   85.4732    8.2229 C.ar    1  UNL1        0.0149
     15 C          63.4085   86.5526    9.2605 C.ar    1  UNL1        0.0811
     16 N          62.1097   87.2683    9.4864 N.ar    1  UNL1       -0.2887
     17 C          59.4687   89.7175   10.9326 C.ar    1  UNL1        0.0999
     18 C          59.3393   91.1623   10.5508 C.ar    1  UNL1        0.1193
     19 N          58.4455   91.8288   11.5542 N.ar    1  UNL1       -0.2223
     20 C          58.0224   90.7958   12.5562 C.ar    1  UNL1        0.1787
     21 N          58.6548   89.4910   12.1720 N.ar    1  UNL1       -0.3058
     22 C          58.5003   88.1883   12.8996 C.3     1  UNL1        0.1321
     23 C          66.5064   91.8235   13.9505 C.2     1  UNL1        0.2414
     24 O          66.7892   91.9499   12.4827 O.2     1  UNL1       -0.2733
     25 N          65.3229   91.0310   14.4207 N.am    1  UNL1       -0.2682
     26 H          65.1373   90.9481   15.3840 H       1  UNL1        0.1563
     27 C          67.4071   92.4897   14.9479 C.3     1  UNL1        0.1319
     28 C          66.9224   92.7423   16.3448 C.3     1  UNL1        0.0270
     29 C          69.7063   93.5357   15.5560 C.3     1  UNL1        0.0862
     30 N          68.7925   92.9033   14.5484 N.3     1  UNL1       -0.2902
     31 H          69.2637   92.0648   14.2089 H       1  UNL1        0.1237
     32 C          63.2018   86.7158   12.4509 C.1     1  UNL1       -0.0404
     33 C          63.0421   85.2244   12.4634 C.1     1  UNL1       -0.0583
     34 C          62.8823   83.7330   12.4759 C.ar    1  UNL1        0.0420
     35 C          62.5265   83.0275   13.7509 C.ar    1  UNL1        0.0083
     36 C          62.3667   81.5361   13.7634 C.ar    1  UNL1        0.0018
     37 C          62.5628   80.7502   12.5009 C.ar    1  UNL1        0.0137
     38 C          62.4031   79.2587   12.5134 C.ar    1  UNL1        0.0594
     39 C          62.0472   78.5532   13.7884 C.3     1  UNL1        0.0521
     40 N          62.5992   78.4728   11.2510 N.ar    1  UNL1       -0.2481
     41 C          62.9551   79.1784    9.9759 C.ar    1  UNL1        0.0984
     42 C          63.1148   80.6698    9.9634 C.ar    1  UNL1        0.0207
     43 C          62.9187   81.4557   11.2259 C.ar    1  UNL1        0.0033
     44 C          63.0784   82.9470   11.2135 C.ar    1  UNL1        0.0083
@<TRIPOS>BOND
     1    29    30    1
     2    30    27    1
     3    27    28    1
     4    27    23    1
     5    23    24    2
     6    23    25   am
     7    25     1    1
     8     1     2   ar
     9     2     3   ar
    10     3     4   ar
    11     4     7    1
    12     7     8   ar
    13     8    17    1
    14    17    18   ar
    15    18    19   ar
    16    19    20   ar
    17    20    21   ar
    18    21    22    1
    19     8     9   ar
    20     9    10   ar
    21    10    11   ar
    22    11    12   ar
    23    12    13    1
    24    12    14   ar
    25    14    15   ar
    26    15    16   ar
    27     4     5   ar
    28     5    32    1
    29    32    33    3
    30    33    34    1
    31    34    35   ar
    32    35    36   ar
    33    36    37   ar
    34    37    38   ar
    35    38    39    1
    36    38    40   ar
    37    40    41   ar
    38    41    42   ar
    39    42    43   ar
    40    43    44   ar
    41     5     6   ar
    42     6     1   ar
    43    16     7   ar
    44    44    34   ar
    45    21    17   ar
    46    16    10   ar
    47    43    37   ar
    48    30    31    1
    49    25    26    1
@<TRIPOS>MOLECULE
*****
 44 49 0 0 0
SMALL
GASTEIGER

@<TRIPOS>ATOM
      1 C          64.3162   89.8165   13.4831 C.ar    1  UNL1        0.1348
      2 C          63.5477   90.6359   12.4892 C.ar    1  UNL1        0.0346
      3 C          62.6453   89.9613   11.4989 C.ar    1  UNL1        0.0065
      4 C          62.5113   88.4674   11.5027 C.ar    1  UNL1        0.0433
      5 C          63.2798   87.6480   12.4966 C.ar    1  UNL1        0.1256
      6 N          64.1822   88.3225   13.4868 N.ar    1  UNL1       -0.2222
      7 C          61.6089   87.7928   10.5124 C.ar    1  UNL1        0.0865
      8 C          60.1144   87.9096   10.4592 C.ar    1  UNL1        0.1163
      9 N          59.6243   87.0720    9.3155 N.ar    1  UNL1       -0.2250
     10 C          60.8160   86.4375    8.6617 C.ar    1  UNL1        0.1475
     11 C          60.9427   85.5116    7.4884 C.ar    1  UNL1        0.0332
     12 C          62.2960   85.0312    7.0549 C.ar    1  UNL1       -0.0174
     13 C          62.4227   84.1053    5.8816 C.3     1  UNL1        0.0312
     14 C          63.5225   85.4767    7.7946 C.ar    1  UNL1        0.0149
     15 C          63.3958   86.4025    8.9679 C.ar    1  UNL1        0.0811
     16 N          62.0425   86.8830    9.4015 N.ar    1  UNL1       -0.2887
     17 C          59.2599   88.7215   11.3870 C.ar    1  UNL1        0.0999
     18 C          58.3019   88.1785   12.4054 C.ar    1  UNL1        0.1193
     19 N          57.6633   89.3404   13.1070 N.ar    1  UNL1       -0.2223
     20 C          58.2268   90.6016   12.5221 C.ar    1  UNL1        0.1787
     21 N          59.2135   90.2191   11.4591 N.ar    1  UNL1       -0.3058
     22 C          60.0134   91.1677   10.6162 C.3     1  UNL1        0.1321
     23 C          65.9920   91.7123   14.0727 C.2     1  UNL1        0.2414
     24 O          65.8630   92.2590   12.6818 O.2     1  UNL1       -0.2733
     25 N          65.2186   90.4911   14.4733 N.am    1  UNL1       -0.2682
     26 H          65.3033   90.1323   15.3862 H       1  UNL1        0.1563
     27 C          66.8945   92.3868   15.0630 C.3     1  UNL1        0.1319
     28 C          68.3768   92.4071   14.8343 C.3     1  UNL1        0.0270
     29 C          65.0094   92.5594   16.8425 C.3     1  UNL1        0.0862
     30 N          66.3146   93.0412   16.2818 N.3     1  UNL1       -0.2902
     31 H          67.0071   92.9463   17.0246 H       1  UNL1        0.1237
     32 C          63.1459   86.1539   12.5004 C.1     1  UNL1       -0.0404
     33 C          63.0119   84.6600   12.5041 C.1     1  UNL1       -0.0583
     34 C          62.8779   83.1659   12.5079 C.ar    1  UNL1        0.0420
     35 C          62.6212   82.4392   13.7947 C.ar    1  UNL1        0.0083
     36 C          62.4873   80.9452   13.7984 C.ar    1  UNL1        0.0018
     37 C          62.6101   80.1780   12.5153 C.ar    1  UNL1        0.0137
     38 C          62.4761   78.6839   12.5191 C.ar    1  UNL1        0.0594
     39 C          62.2194   77.9572   13.8059 C.3     1  UNL1        0.0521
     40 N          62.5989   77.9167   11.2360 N.ar    1  UNL1       -0.2481
     41 C          62.8556   78.6435    9.9492 C.ar    1  UNL1        0.0984
     42 C          62.9895   80.1375    9.9454 C.ar    1  UNL1        0.0207
     43 C          62.8668   80.9047   11.2285 C.ar    1  UNL1        0.0033
     44 C          63.0007   82.3987   11.2248 C.ar    1  UNL1        0.0083
@<TRIPOS>BOND
     1    29    30    1
     2    30    27    1
     3    27    28    1
     4    27    23    1
     5    23    24    2
     6    23    25   am
     7    25     1    1
     8     1     2   ar
     9     2     3   ar
    10     3     4   ar
    11     4     7    1
    12     7     8   ar
    13     8    17    1
    14    17    18   ar
    15    18    19   ar
    16    19    20   ar
    17    20    21   ar
    18    21    22    1
    19     8     9   ar
    20     9    10   ar
    21    10    11   ar
    22    11    12   ar
    23    12    13    1
    24    12    14   ar
    25    14    15   ar
    26    15    16   ar
    27     4     5   ar
    28     5    32    1
    29    32    33    3
    30    33    34    1
    31    34    35   ar
    32    35    36   ar
    33    36    37   ar
    34    37    38   ar
    35    38    39    1
    36    38    40   ar
    37    40    41   ar
    38    41    42   ar
    39    42    43   ar
    40    43    44   ar
    41     5     6   ar
    42     6     1   ar
    43    16     7   ar
    44    44    34   ar
    45    21    17   ar
    46    16    10   ar
    47    43    37   ar
    48    30    31    1
    49    25    26    1
@<TRIPOS>MOLECULE
*****
 44 49 0 0 0
SMALL
GASTEIGER

@<TRIPOS>ATOM
      1 C          60.1051   90.3298    6.0875 C.ar    1  UNL1        0.1348
      2 C          59.4924   88.9629    6.1656 C.ar    1  UNL1        0.0346
      3 C          59.7783   88.0789    7.3432 C.ar    1  UNL1        0.0065
      4 C          60.6771   88.5618    8.4427 C.ar    1  UNL1        0.0433
      5 C          61.2899   89.9286    8.3647 C.ar    1  UNL1        0.1256
      6 N          61.0039   90.8126    7.1870 N.ar    1  UNL1       -0.2222
      7 C          60.9631   87.6778    9.6203 C.ar    1  UNL1        0.0865
      8 C          60.4909   87.9019   11.0263 C.ar    1  UNL1        0.1163
      9 N          61.0074   86.7771   11.8737 N.ar    1  UNL1       -0.2250
     10 C          61.7989   85.8578   10.9914 C.ar    1  UNL1        0.1475
     11 C          62.5410   84.5857   11.2761 C.ar    1  UNL1        0.0332
     12 C          63.2557   83.8703   10.1682 C.ar    1  UNL1       -0.0174
     13 C          63.9979   82.5983   10.4530 C.3     1  UNL1        0.0312
     14 C          63.2284   84.4269    8.7756 C.ar    1  UNL1        0.0149
     15 C          62.4862   85.6990    8.4908 C.ar    1  UNL1        0.0811
     16 N          61.7715   86.4145    9.5988 N.ar    1  UNL1       -0.2887
     17 C          59.6498   89.0494   11.5016 C.ar    1  UNL1        0.0999
     18 C          59.6176   90.4253   10.9053 C.ar    1  UNL1        0.1193
     19 N          58.6411   91.2487   11.6917 N.ar    1  UNL1       -0.2223
     20 C          58.0697   90.3815   12.7741 C.ar    1  UNL1        0.1787
     21 N          58.6931   89.0222   12.6566 N.ar    1  UNL1       -0.3058
     22 C          58.4096   87.8429   13.5392 C.3     1  UNL1        0.1321
     23 C          60.9378   91.6518    4.0117 C.2     1  UNL1        0.2414
     24 O          62.3425   91.2058    4.2911 O.2     1  UNL1       -0.2733
     25 N          59.8191   91.2138    4.9099 N.am    1  UNL1       -0.2682
     26 H          58.8972   91.5065    4.7265 H       1  UNL1        0.1563
     27 C          60.6518   92.5358    2.8341 C.3     1  UNL1        0.1319
     28 C          61.7763   93.2402    2.1345 C.3     1  UNL1        0.0270
     29 C          58.9760   93.1050    0.9321 C.3     1  UNL1        0.0862
     30 N          59.2414   92.7154    2.3561 N.3     1  UNL1       -0.2902
     31 H          58.7622   91.8287    2.5130 H       1  UNL1        0.1237
     32 C          62.1887   90.4116    9.4642 C.1     1  UNL1       -0.0404
     33 C          63.0874   90.8945   10.5638 C.1     1  UNL1       -0.0583
     34 C          63.9862   91.3775   11.6633 C.ar    1  UNL1        0.0420
     35 C          65.2704   92.0770   11.3295 C.ar    1  UNL1        0.0083
     36 C          66.1691   92.5599   12.4291 C.ar    1  UNL1        0.0018
     37 C          65.7837   92.3432   13.8624 C.ar    1  UNL1        0.0137
     38 C          66.6825   92.8262   14.9620 C.ar    1  UNL1        0.0594
     39 C          67.9667   93.5257   14.6282 C.3     1  UNL1        0.0521
     40 N          66.2970   92.6096   16.3953 N.ar    1  UNL1       -0.2481
     41 C          65.0128   91.9100   16.7291 C.ar    1  UNL1        0.0984
     42 C          64.1140   91.4271   15.6296 C.ar    1  UNL1        0.0207
     43 C          64.4995   91.6437   14.1962 C.ar    1  UNL1        0.0033
     44 C          63.6008   91.1608   13.0967 C.ar    1  UNL1        0.0083
@<TRIPOS>BOND
     1    29    30    1
     2    30    27    1
     3    27    28    1
     4    27    23    1
     5    23    24    2
     6    23    25   am
     7    25     1    1
     8     1     2   ar
     9     2     3   ar
    10     3     4   ar
    11     4     7    1
    12     7     8   ar
    13     8    17    1
    14    17    18   ar
    15    18    19   ar
    16    19    20   ar
    17    20    21   ar
    18    21    22    1
    19     8     9   ar
    20     9    10   ar
    21    10    11   ar
    22    11    12   ar
    23    12    13    1
    24    12    14   ar
    25    14    15   ar
    26    15    16   ar
    27     4     5   ar
    28     5    32    1
    29    32    33    3
    30    33    34    1
    31    34    35   ar
    32    35    36   ar
    33    36    37   ar
    34    37    38   ar
    35    38    39    1
    36    38    40   ar
    37    40    41   ar
    38    41    42   ar
    39    42    43   ar
    40    43    44   ar
    41     5     6   ar
    42     6     1   ar
    43    16     7   ar
    44    44    34   ar
    45    21    17   ar
    46    16    10   ar
    47    43    37   ar
    48    30    31    1
    49    25    26    1
@<TRIPOS>MOLECULE
*****
 44 49 0 0 0
SMALL
GASTEIGER

@<TRIPOS>ATOM
      1 C          59.2258   89.3808    6.8103 C.ar    1  UNL1        0.1348
      2 C          58.8468   87.9371    6.9586 C.ar    1  UNL1        0.0346
      3 C          59.4571   87.1098    8.0509 C.ar    1  UNL1        0.0065
      4 C          60.4464   87.7263    8.9950 C.ar    1  UNL1        0.0433
      5 C          60.8254   89.1700    8.8467 C.ar    1  UNL1        0.1256
      6 N          60.2151   89.9972    7.7544 N.ar    1  UNL1       -0.2222
      7 C          61.0566   86.8990   10.0873 C.ar    1  UNL1        0.0865
      8 C          60.8118   87.0619   11.5582 C.ar    1  UNL1        0.1163
      9 N          61.6227   86.0272   12.2805 N.ar    1  UNL1       -0.2250
     10 C          62.3688   85.2248   11.2560 C.ar    1  UNL1        0.1475
     11 C          63.3215   84.0731   11.3823 C.ar    1  UNL1        0.0332
     12 C          63.9244   83.4603   10.1531 C.ar    1  UNL1       -0.0174
     13 C          64.8771   82.3086   10.2793 C.3     1  UNL1        0.0312
     14 C          63.5745   83.9991    8.7975 C.ar    1  UNL1        0.0149
     15 C          62.6218   85.1507    8.6713 C.ar    1  UNL1        0.0811
     16 N          62.0189   85.7636    9.9006 N.ar    1  UNL1       -0.2887
     17 C          59.9137   88.0806   12.1950 C.ar    1  UNL1        0.0999
     18 C          58.4424   88.2361   11.9482 C.ar    1  UNL1        0.1193
     19 N          57.9485   89.3743   12.7911 N.ar    1  UNL1       -0.2223
     20 C          59.1148   89.9224   13.5589 C.ar    1  UNL1        0.1787
     21 N          60.3293   89.1228   13.1906 N.ar    1  UNL1       -0.3058
     22 C          61.7160   89.3293   13.7241 C.3     1  UNL1        0.1321
     23 C          59.4746   91.1351    4.9102 C.2     1  UNL1        0.2414
     24 O          60.9441   91.2349    5.1947 O.2     1  UNL1       -0.2733
     25 N          58.6156   90.2081    5.7180 N.am    1  UNL1       -0.2682
     26 H          57.6512   90.1426    5.5312 H       1  UNL1        0.1563
     27 C          58.8644   91.9623    3.8178 C.3     1  UNL1        0.1319
     28 C          59.7457   92.7170    2.8671 C.3     1  UNL1        0.0270
     29 C          56.4918   91.7128    4.8466 C.3     1  UNL1        0.0862
     30 N          57.3729   92.0350    3.6762 N.3     1  UNL1       -0.2902
     31 H          57.1501   92.9895    3.3940 H       1  UNL1        0.1237
     32 C          61.8147   89.7865    9.7908 C.1     1  UNL1       -0.0404
     33 C          62.8040   90.4029   10.7348 C.1     1  UNL1       -0.0583
     34 C          63.7933   91.0194   11.6789 C.ar    1  UNL1        0.0420
     35 C          64.1903   90.2924   12.9294 C.ar    1  UNL1        0.0083
     36 C          65.1796   90.9089   13.8734 C.ar    1  UNL1        0.0018
     37 C          65.7719   92.2525   13.5669 C.ar    1  UNL1        0.0137
     38 C          66.7612   92.8690   14.5110 C.ar    1  UNL1        0.0594
     39 C          67.1582   92.1419   15.7615 C.3     1  UNL1        0.0521
     40 N          67.3536   94.2125   14.2045 N.ar    1  UNL1       -0.2481
     41 C          66.9566   94.9396   12.9539 C.ar    1  UNL1        0.0984
     42 C          65.9673   94.3231   12.0099 C.ar    1  UNL1        0.0207
     43 C          65.3750   92.9795   12.3164 C.ar    1  UNL1        0.0033
     44 C          64.3857   92.3630   11.3724 C.ar    1  UNL1        0.0083
@<TRIPOS>BOND
     1    29    30    1
     2    30    27    1
     3    27    28    1
     4    27    23    1
     5    23    24    2
     6    23    25   am
     7    25     1    1
     8     1     2   ar
     9     2     3   ar
    10     3     4   ar
    11     4     7    1
    12     7     8   ar
    13     8    17    1
    14    17    18   ar
    15    18    19   ar
    16    19    20   ar
    17    20    21   ar
    18    21    22    1
    19     8     9   ar
    20     9    10   ar
    21    10    11   ar
    22    11    12   ar
    23    12    13    1
    24    12    14   ar
    25    14    15   ar
    26    15    16   ar
    27     4     5   ar
    28     5    32    1
    29    32    33    3
    30    33    34    1
    31    34    35   ar
    32    35    36   ar
    33    36    37   ar
    34    37    38   ar
    35    38    39    1
    36    38    40   ar
    37    40    41   ar
    38    41    42   ar
    39    42    43   ar
    40    43    44   ar
    41     5     6   ar
    42     6     1   ar
    43    16     7   ar
    44    44    34   ar
    45    21    17   ar
    46    16    10   ar
    47    43    37   ar
    48    30    31    1
    49    25    26    1
