@<TRIPOS>MOLECULE
*****
 27 29 0 0 0
SMALL
GASTEIGER

@<TRIPOS>ATOM
      1 C          61.8793   86.1157    9.4366 C.3     1  UNL1        0.0290
      2 C          60.7909   86.1450    8.4049 C.3     1  UNL1        0.0870
      3 C          60.1283   87.4892    8.4683 C.2     1  UNL1        0.2258
      4 O          58.9871   87.9509    7.6113 O.2     1  UNL1       -0.2749
      5 N          60.8072   88.2906    9.5392 N.am    1  UNL1       -0.2757
      6 C          61.8894   87.4417   10.1377 C.3     1  UNL1        0.0940
      7 C          63.0111   85.1118    8.2408 C.3     1  UNL1        0.0002
      8 C          62.7967   84.9627    9.7180 C.3     1  UNL1        0.0055
      9 C          62.2637   85.2140   11.0974 C.3     1  UNL1        0.0254
     10 C          62.7224   84.3642   12.2451 C.3     1  UNL1        0.1508
     11 S          63.7142   83.2630   12.0134 S.O2    1  UNL1       -0.0100
     12 O          64.6316   82.1100   12.2947 O.2     1  UNL1       -0.1730
     13 O          63.4998   83.1139   13.4905 O.2     1  UNL1       -0.1730
     14 C          64.2472   83.0117   10.6341 C.3     1  UNL1        0.1508
     15 C          63.7885   83.8615    9.4863 C.3     1  UNL1        0.0254
     16 C          60.4641   89.6944    9.9411 C.3     1  UNL1        0.1406
     17 C          61.4242   90.4924   10.7728 C.3     1  UNL1        0.2268
     18 O          61.7754   90.0361   12.1578 O.3     1  UNL1       -0.4736
     19 C          63.0905   90.4259   12.7651 C.ar    1  UNL1        0.1395
     20 C          63.6052   89.6971   13.9708 C.ar    1  UNL1        0.0392
     21 C          64.9202   90.0869   14.5780 C.ar    1  UNL1        0.0334
     22 C          65.7205   91.2055   13.9794 C.ar    1  UNL1        0.1499
     23 F          67.0356   91.5953   14.5866 F       1  UNL1       -0.2035
     24 C          65.2058   91.9343   12.7736 C.ar    1  UNL1        0.0988
     25 C          63.8908   91.5445   12.1665 C.ar    1  UNL1        0.0494
     26 C          66.0061   93.0529   12.1750 C.1     1  UNL1        0.1028
     27 N          66.8064   94.1714   11.5764 N.1     1  UNL1       -0.1908
@<TRIPOS>BOND
     1     7     8    1
     2     1     8    1
     3     1     2    1
     4     2     3    1
     5     3     4    2
     6     3     5   am
     7     5    16    1
     8    16    17    1
     9    17    18    1
    10    18    19    1
    11    19    20   ar
    12    20    21   ar
    13    21    22   ar
    14    22    23    1
    15    22    24   ar
    16    24    26    1
    17    26    27    3
    18    24    25   ar
    19     5     6    1
    20     8     9    1
    21     9    10    1
    22    10    11    1
    23    11    12    2
    24    11    13    2
    25    11    14    1
    26    14    15    1
    27    15     8    1
    28     6     1    1
    29    25    19   ar
@<TRIPOS>MOLECULE
*****
 27 29 0 0 0
SMALL
GASTEIGER

@<TRIPOS>ATOM
      1 C          64.0824   89.2959   14.4813 C.3     1  UNL1        0.0290
      2 C          63.5405   89.4564   15.8708 C.3     1  UNL1        0.0870
      3 C          63.3988   88.0902   16.4737 C.2     1  UNL1        0.2258
      4 O          62.8919   87.7828   17.8515 O.2     1  UNL1       -0.2749
      5 N          63.8531   87.0854   15.4568 N.am    1  UNL1       -0.2757
      6 C          64.2755   87.8306   14.2254 C.3     1  UNL1        0.0940
      7 C          63.2350   89.7436   12.8080 C.3     1  UNL1        0.0002
      8 C          64.3790   90.4059   13.5170 C.3     1  UNL1        0.0055
      9 C          65.4200   90.6828   14.5609 C.3     1  UNL1        0.0254
     10 C          66.3602   91.8395   14.3944 C.3     1  UNL1        0.1508
     11 S          66.2595   92.7195   13.1838 S.O2    1  UNL1       -0.0100
     12 O          66.5561   93.8295   12.2195 O.2     1  UNL1       -0.1730
     13 O          67.4035   93.3818   13.8928 O.2     1  UNL1       -0.1730
     14 C          65.2186   92.4427   12.1399 C.3     1  UNL1        0.1508
     15 C          64.2783   91.2860   12.3065 C.3     1  UNL1        0.0254
     16 C          63.8801   85.5968   15.6392 C.3     1  UNL1        0.1406
     17 C          64.1969   84.7042   14.4759 C.3     1  UNL1        0.2268
     18 O          63.0873   84.1459   13.6351 O.3     1  UNL1       -0.4736
     19 C          63.0639   84.4027   12.1573 C.ar    1  UNL1        0.1395
     20 C          63.7847   83.4762   11.2236 C.ar    1  UNL1        0.0392
     21 C          63.7613   83.7331    9.7459 C.ar    1  UNL1        0.0334
     22 C          63.0171   84.9165    9.2021 C.ar    1  UNL1        0.1499
     23 F          62.9938   85.1734    7.7244 F       1  UNL1       -0.2035
     24 C          62.2964   85.8430   10.1359 C.ar    1  UNL1        0.0988
     25 C          62.3198   85.5861   11.6135 C.ar    1  UNL1        0.0494
     26 C          61.5522   87.0264    9.5920 C.1     1  UNL1        0.1028
     27 N          60.8080   88.2098    9.0482 N.1     1  UNL1       -0.1908
@<TRIPOS>BOND
     1     7     8    1
     2     1     8    1
     3     1     2    1
     4     2     3    1
     5     3     4    2
     6     3     5   am
     7     5    16    1
     8    16    17    1
     9    17    18    1
    10    18    19    1
    11    19    20   ar
    12    20    21   ar
    13    21    22   ar
    14    22    23    1
    15    22    24   ar
    16    24    26    1
    17    26    27    3
    18    24    25   ar
    19     5     6    1
    20     8     9    1
    21     9    10    1
    22    10    11    1
    23    11    12    2
    24    11    13    2
    25    11    14    1
    26    14    15    1
    27    15     8    1
    28     6     1    1
    29    25    19   ar
@<TRIPOS>MOLECULE
*****
 27 29 0 0 0
SMALL
GASTEIGER

@<TRIPOS>ATOM
      1 C          62.4258   85.6354   10.7290 C.3     1  UNL1        0.0290
      2 C          63.1623   84.6417    9.8803 C.3     1  UNL1        0.0870
      3 C          63.6444   83.5370   10.7731 C.2     1  UNL1        0.2258
      4 O          64.4275   82.3327   10.3412 O.2     1  UNL1       -0.2749
      5 N          63.2061   83.8479   12.1735 N.am    1  UNL1       -0.2757
      6 C          62.4529   85.1448   12.1462 C.3     1  UNL1        0.0940
      7 C          62.6130   87.4470   11.3628 C.3     1  UNL1        0.0002
      8 C          61.7764   86.8981   10.2453 C.3     1  UNL1        0.0055
      9 C          61.1653   85.9106    9.2958 C.3     1  UNL1        0.0254
     10 C          60.1954   86.3764    8.2507 C.3     1  UNL1        0.1508
     11 S          59.8365   87.8298    8.1552 S.O2    1  UNL1       -0.0100
     12 O          59.1870   89.0924    7.6715 O.2     1  UNL1       -0.1730
     13 O          58.9998   87.2808    7.0377 O.2     1  UNL1       -0.1730
     14 C          60.4475   88.8172    9.1047 C.3     1  UNL1        0.1508
     15 C          61.4175   88.3514   10.1497 C.3     1  UNL1        0.0254
     16 C          63.4738   83.0092   13.3879 C.3     1  UNL1        0.1406
     17 C          63.2846   83.5908   14.7576 C.3     1  UNL1        0.2268
     18 O          64.3314   84.4933   15.3404 O.3     1  UNL1       -0.4736
     19 C          63.9813   85.9023   15.7177 C.ar    1  UNL1        0.1395
     20 C          63.2366   86.1747   16.9909 C.ar    1  UNL1        0.0392
     21 C          62.8865   87.5836   17.3682 C.ar    1  UNL1        0.0334
     22 C          63.2812   88.7201   16.4722 C.ar    1  UNL1        0.1499
     23 F          62.9311   90.1290   16.8496 F       1  UNL1       -0.2035
     24 C          64.0260   88.4476   15.1991 C.ar    1  UNL1        0.0988
     25 C          64.3760   87.0387   14.8218 C.ar    1  UNL1        0.0494
     26 C          64.4206   89.5841   14.3031 C.1     1  UNL1        0.1028
     27 N          64.8153   90.7206   13.4072 N.1     1  UNL1       -0.1908
@<TRIPOS>BOND
     1     7     8    1
     2     1     8    1
     3     1     2    1
     4     2     3    1
     5     3     4    2
     6     3     5   am
     7     5    16    1
     8    16    17    1
     9    17    18    1
    10    18    19    1
    11    19    20   ar
    12    20    21   ar
    13    21    22   ar
    14    22    23    1
    15    22    24   ar
    16    24    26    1
    17    26    27    3
    18    24    25   ar
    19     5     6    1
    20     8     9    1
    21     9    10    1
    22    10    11    1
    23    11    12    2
    24    11    13    2
    25    11    14    1
    26    14    15    1
    27    15     8    1
    28     6     1    1
    29    25    19   ar
@<TRIPOS>MOLECULE
*****
 27 29 0 0 0
SMALL
GASTEIGER

@<TRIPOS>ATOM
      1 C          62.5885   90.3272   11.2058 C.3     1  UNL1        0.0290
      2 C          61.5256   90.0145   12.2170 C.3     1  UNL1        0.0870
      3 C          60.5248   89.1031   11.5707 C.2     1  UNL1        0.2258
      4 O          59.2955   88.5409   12.2209 O.2     1  UNL1       -0.2749
      5 N          60.9692   88.8524   10.1601 N.am    1  UNL1       -0.2757
      6 C          62.2446   89.6090    9.9346 C.3     1  UNL1        0.0940
      7 C          63.4625   91.5575   10.0053 C.3     1  UNL1        0.0002
      8 C          63.7852   91.2042   11.4270 C.3     1  UNL1        0.0055
      9 C          63.6923   90.5462   12.7718 C.3     1  UNL1        0.0254
     10 C          64.6839   90.8879   13.8441 C.3     1  UNL1        0.1508
     11 S          65.7686   91.8876   13.5715 S.O2    1  UNL1       -0.0100
     12 O          66.9653   92.7646   13.7927 O.2     1  UNL1       -0.1730
     13 O          66.0913   91.5343   14.9932 O.2     1  UNL1       -0.1730
     14 C          65.8615   92.5455   12.2268 C.3     1  UNL1        0.1508
     15 C          64.8698   92.2038   11.1545 C.3     1  UNL1        0.0254
     16 C          60.2623   87.9957    9.1521 C.3     1  UNL1        0.1406
     17 C          60.6226   86.5459    9.0155 C.3     1  UNL1        0.2268
     18 O          62.0596   86.1405    8.8726 O.3     1  UNL1       -0.4736
     19 C          62.6729   85.1916    9.8594 C.ar    1  UNL1        0.1395
     20 C          63.6054   84.1163    9.3859 C.ar    1  UNL1        0.0392
     21 C          64.2186   83.1675   10.3726 C.ar    1  UNL1        0.0334
     22 C          63.8993   83.2939   11.8328 C.ar    1  UNL1        0.1499
     23 F          64.5126   82.3450   12.8195 F       1  UNL1       -0.2035
     24 C          62.9668   84.3692   12.3062 C.ar    1  UNL1        0.0988
     25 C          62.3536   85.3180   11.3195 C.ar    1  UNL1        0.0494
     26 C          62.6476   84.4956   13.7664 C.1     1  UNL1        0.1028
     27 N          62.3283   84.6220   15.2265 N.1     1  UNL1       -0.1908
@<TRIPOS>BOND
     1     7     8    1
     2     1     8    1
     3     1     2    1
     4     2     3    1
     5     3     4    2
     6     3     5   am
     7     5    16    1
     8    16    17    1
     9    17    18    1
    10    18    19    1
    11    19    20   ar
    12    20    21   ar
    13    21    22   ar
    14    22    23    1
    15    22    24   ar
    16    24    26    1
    17    26    27    3
    18    24    25   ar
    19     5     6    1
    20     8     9    1
    21     9    10    1
    22    10    11    1
    23    11    12    2
    24    11    13    2
    25    11    14    1
    26    14    15    1
    27    15     8    1
    28     6     1    1
    29    25    19   ar
@<TRIPOS>MOLECULE
*****
 27 29 0 0 0
SMALL
GASTEIGER

@<TRIPOS>ATOM
      1 C          62.8939   90.0660   11.4775 C.3     1  UNL1        0.0290
      2 C          62.0403   90.6421   10.3869 C.3     1  UNL1        0.0870
      3 C          61.1658   89.5456    9.8547 C.2     1  UNL1        0.2258
      4 O          60.1556   89.6794    8.7541 O.2     1  UNL1       -0.2749
      5 N          61.4791   88.2919   10.6165 N.am    1  UNL1       -0.2757
      6 C          62.5471   88.6136   11.6194 C.3     1  UNL1        0.0940
      7 C          63.4052   89.8592   13.3254 C.3     1  UNL1        0.0002
      8 C          63.9152   90.8115   12.2846 C.3     1  UNL1        0.0055
      9 C          64.0705   91.5048   10.9635 C.3     1  UNL1        0.0254
     10 C          65.0699   92.6129   10.8109 C.3     1  UNL1        0.1508
     11 S          65.9140   93.0277   11.9794 S.O2    1  UNL1       -0.0100
     12 O          66.9353   93.7732   12.7865 O.2     1  UNL1       -0.1730
     13 O          66.4240   93.9799   10.9387 O.2     1  UNL1       -0.1730
     14 C          65.7587   92.3344   13.3004 C.3     1  UNL1        0.1508
     15 C          64.7593   91.2263   13.4530 C.3     1  UNL1        0.0254
     16 C          60.8370   86.9520   10.4113 C.3     1  UNL1        0.1406
     17 C          61.3319   86.0413    9.3269 C.3     1  UNL1        0.2268
     18 O          62.7364   85.5166    9.3710 O.3     1  UNL1       -0.4736
     19 C          63.1235   84.4954   10.3993 C.ar    1  UNL1        0.1395
     20 C          63.8635   83.2579    9.9859 C.ar    1  UNL1        0.0392
     21 C          64.2507   82.2368   11.0142 C.ar    1  UNL1        0.0334
     22 C          63.8978   82.4531   12.4559 C.ar    1  UNL1        0.1499
     23 F          64.2849   81.4319   13.4842 F       1  UNL1       -0.2035
     24 C          63.1577   83.6906   12.8694 C.ar    1  UNL1        0.0988
     25 C          62.7706   84.7117   11.8411 C.ar    1  UNL1        0.0494
     26 C          62.8048   83.9069   14.3111 C.1     1  UNL1        0.1028
     27 N          62.4519   84.1233   15.7529 N.1     1  UNL1       -0.1908
@<TRIPOS>BOND
     1     7     8    1
     2     1     8    1
     3     1     2    1
     4     2     3    1
     5     3     4    2
     6     3     5   am
     7     5    16    1
     8    16    17    1
     9    17    18    1
    10    18    19    1
    11    19    20   ar
    12    20    21   ar
    13    21    22   ar
    14    22    23    1
    15    22    24   ar
    16    24    26    1
    17    26    27    3
    18    24    25   ar
    19     5     6    1
    20     8     9    1
    21     9    10    1
    22    10    11    1
    23    11    12    2
    24    11    13    2
    25    11    14    1
    26    14    15    1
    27    15     8    1
    28     6     1    1
    29    25    19   ar
@<TRIPOS>MOLECULE
*****
 27 29 0 0 0
SMALL
GASTEIGER

@<TRIPOS>ATOM
      1 C          62.4208   87.5618   11.3041 C.3     1  UNL1        0.0290
      2 C          62.7334   89.0229   11.4374 C.3     1  UNL1        0.0870
      3 C          63.5062   89.2175   12.7081 C.2     1  UNL1        0.2258
      4 O          64.0232   90.5235   13.2344 O.2     1  UNL1       -0.2749
      5 N          63.6712   87.8767   13.3603 N.am    1  UNL1       -0.2757
      6 C          63.0004   86.8535   12.4925 C.3     1  UNL1        0.0940
      7 C          62.3489   85.7162   10.7500 C.3     1  UNL1        0.0002
      8 C          61.6618   86.9216   10.1798 C.3     1  UNL1        0.0055
      9 C          61.2383   88.3493   10.0001 C.3     1  UNL1        0.0254
     10 C          60.2945   88.7182    8.8942 C.3     1  UNL1        0.1508
     11 S          59.7741   87.6593    7.9679 S.O2    1  UNL1       -0.0100
     12 O          59.0151   87.0190    6.8436 O.2     1  UNL1       -0.1730
     13 O          59.0870   88.8646    7.3977 O.2     1  UNL1       -0.1730
     14 C          60.1976   86.2316    8.1476 C.3     1  UNL1        0.1508
     15 C          61.1414   85.8627    9.2535 C.3     1  UNL1        0.0254
     16 C          64.3822   87.6066   14.6531 C.3     1  UNL1        0.1406
     17 C          64.9332   86.2402   14.9348 C.3     1  UNL1        0.2268
     18 O          64.0229   85.1484   15.4134 O.3     1  UNL1       -0.4736
     19 C          63.7176   83.9816   14.5215 C.ar    1  UNL1        0.1395
     20 C          64.6265   83.6573   13.3732 C.ar    1  UNL1        0.0392
     21 C          64.3212   82.4905   12.4814 C.ar    1  UNL1        0.0334
     22 C          63.1069   81.6480   12.7379 C.ar    1  UNL1        0.1499
     23 F          62.8016   80.4812   11.8460 F       1  UNL1       -0.2035
     24 C          62.1980   81.9723   13.8862 C.ar    1  UNL1        0.0988
     25 C          62.5033   83.1391   14.7780 C.ar    1  UNL1        0.0494
     26 C          60.9837   81.1298   14.1427 C.1     1  UNL1        0.1028
     27 N          59.7694   80.2873   14.3992 N.1     1  UNL1       -0.1908
@<TRIPOS>BOND
     1     7     8    1
     2     1     8    1
     3     1     2    1
     4     2     3    1
     5     3     4    2
     6     3     5   am
     7     5    16    1
     8    16    17    1
     9    17    18    1
    10    18    19    1
    11    19    20   ar
    12    20    21   ar
    13    21    22   ar
    14    22    23    1
    15    22    24   ar
    16    24    26    1
    17    26    27    3
    18    24    25   ar
    19     5     6    1
    20     8     9    1
    21     9    10    1
    22    10    11    1
    23    11    12    2
    24    11    13    2
    25    11    14    1
    26    14    15    1
    27    15     8    1
    28     6     1    1
    29    25    19   ar
@<TRIPOS>MOLECULE
*****
 27 29 0 0 0
SMALL
GASTEIGER

@<TRIPOS>ATOM
      1 C          62.1210   89.3035   11.1178 C.3     1  UNL1        0.0290
      2 C          62.7371   90.6678   11.2131 C.3     1  UNL1        0.0870
      3 C          63.6046   90.7003   12.4363 C.2     1  UNL1        0.2258
      4 O          64.4106   91.8714   12.9148 O.2     1  UNL1       -0.2749
      5 N          63.5246   89.3560   13.0971 N.am    1  UNL1       -0.2757
      6 C          62.6077   88.4928   12.2822 C.3     1  UNL1        0.0940
      7 C          60.5446   90.1450   10.3930 C.3     1  UNL1        0.0002
      8 C          61.1829   88.8325   10.0463 C.3     1  UNL1        0.0055
      9 C          62.1469   87.6836   10.0718 C.3     1  UNL1        0.0254
     10 C          61.9512   86.5196    9.1462 C.3     1  UNL1        0.1508
     11 S          60.7914   86.5045    8.1951 S.O2    1  UNL1       -0.0100
     12 O          59.8533   86.0336    7.1236 O.2     1  UNL1       -0.1730
     13 O          61.4296   85.1920    7.8484 O.2     1  UNL1       -0.1730
     14 C          59.8274   87.6534    8.1696 C.3     1  UNL1        0.1508
     15 C          60.0231   88.8174    9.0952 C.3     1  UNL1        0.0254
     16 C          64.2366   88.9469   14.3524 C.3     1  UNL1        0.1406
     17 C          64.5980   87.5081   14.5746 C.3     1  UNL1        0.2268
     18 O          63.6418   86.5955   15.2837 O.3     1  UNL1       -0.4736
     19 C          63.3499   85.2343   14.7249 C.ar    1  UNL1        0.1395
     20 C          62.4926   84.2750   15.4960 C.ar    1  UNL1        0.0392
     21 C          62.2008   82.9140   14.9372 C.ar    1  UNL1        0.0334
     22 C          62.7662   82.5123   13.6072 C.ar    1  UNL1        0.1499
     23 F          62.4743   81.1511   13.0484 F       1  UNL1       -0.2035
     24 C          63.6235   83.4716   12.8360 C.ar    1  UNL1        0.0988
     25 C          63.9154   84.8326   13.3949 C.ar    1  UNL1        0.0494
     26 C          64.1890   83.0698   11.5060 C.1     1  UNL1        0.1028
     27 N          64.7544   82.6681   10.1760 N.1     1  UNL1       -0.1908
@<TRIPOS>BOND
     1     7     8    1
     2     1     8    1
     3     1     2    1
     4     2     3    1
     5     3     4    2
     6     3     5   am
     7     5    16    1
     8    16    17    1
     9    17    18    1
    10    18    19    1
    11    19    20   ar
    12    20    21   ar
    13    21    22   ar
    14    22    23    1
    15    22    24   ar
    16    24    26    1
    17    26    27    3
    18    24    25   ar
    19     5     6    1
    20     8     9    1
    21     9    10    1
    22    10    11    1
    23    11    12    2
    24    11    13    2
    25    11    14    1
    26    14    15    1
    27    15     8    1
    28     6     1    1
    29    25    19   ar
@<TRIPOS>MOLECULE
*****
 27 29 0 0 0
SMALL
GASTEIGER

@<TRIPOS>ATOM
      1 C          62.8415   84.6892   11.3834 C.3     1  UNL1        0.0290
      2 C          63.1347   84.3568    9.9503 C.3     1  UNL1        0.0870
      3 C          62.7234   85.5288    9.1093 C.2     1  UNL1        0.2258
      4 O          62.8392   85.6268    7.6170 O.2     1  UNL1       -0.2749
      5 N          62.1761   86.5854   10.0225 N.am    1  UNL1       -0.2757
      6 C          62.2490   86.0665   11.4279 C.3     1  UNL1        0.0940
      7 C          63.4535   85.1307   13.1580 C.3     1  UNL1        0.0002
      8 C          63.0960   83.8003   12.5645 C.3     1  UNL1        0.0055
      9 C          62.6501   82.7785   11.5609 C.3     1  UNL1        0.0254
     10 C          62.5829   81.3300   11.9444 C.3     1  UNL1        0.1508
     11 S          62.9616   80.9031   13.3316 S.O2    1  UNL1       -0.0100
     12 O          63.2162   80.0142   14.5128 O.2     1  UNL1       -0.1730
     13 O          62.6042   79.5727   12.7382 O.2     1  UNL1       -0.1730
     14 C          63.4075   81.9248   14.3352 C.3     1  UNL1        0.1508
     15 C          63.4747   83.3734   13.9517 C.3     1  UNL1        0.0254
     16 C          61.6485   87.9256    9.6037 C.3     1  UNL1        0.1406
     17 C          62.2784   89.1791   10.1349 C.3     1  UNL1        0.2268
     18 O          62.0391   89.5946   11.5562 O.3     1  UNL1       -0.4736
     19 C          63.1824   90.0760   12.3995 C.ar    1  UNL1        0.1395
     20 C          63.5879   89.3078   13.6223 C.ar    1  UNL1        0.0392
     21 C          64.7312   89.7893   14.4656 C.ar    1  UNL1        0.0334
     22 C          65.4689   91.0389   14.0860 C.ar    1  UNL1        0.1499
     23 F          66.6122   91.5204   14.9294 F       1  UNL1       -0.2035
     24 C          65.0634   91.8072   12.8632 C.ar    1  UNL1        0.0988
     25 C          63.9202   91.3257   12.0199 C.ar    1  UNL1        0.0494
     26 C          65.8011   93.0568   12.4836 C.1     1  UNL1        0.1028
     27 N          66.5389   94.3065   12.1041 N.1     1  UNL1       -0.1908
@<TRIPOS>BOND
     1     7     8    1
     2     1     8    1
     3     1     2    1
     4     2     3    1
     5     3     4    2
     6     3     5   am
     7     5    16    1
     8    16    17    1
     9    17    18    1
    10    18    19    1
    11    19    20   ar
    12    20    21   ar
    13    21    22   ar
    14    22    23    1
    15    22    24   ar
    16    24    26    1
    17    26    27    3
    18    24    25   ar
    19     5     6    1
    20     8     9    1
    21     9    10    1
    22    10    11    1
    23    11    12    2
    24    11    13    2
    25    11    14    1
    26    14    15    1
    27    15     8    1
    28     6     1    1
    29    25    19   ar
@<TRIPOS>MOLECULE
*****
 27 29 0 0 0
SMALL
GASTEIGER

@<TRIPOS>ATOM
      1 C          63.7299   86.3728   15.3293 C.3     1  UNL1        0.0290
      2 C          63.8315   85.0616   16.0510 C.3     1  UNL1        0.0870
      3 C          64.0082   83.9809   15.0259 C.2     1  UNL1        0.2258
      4 O          64.1520   82.5145   15.3066 O.2     1  UNL1       -0.2749
      5 N          64.0157   84.6241   13.6708 N.am    1  UNL1       -0.2757
      6 C          63.8437   86.1023   13.8583 C.3     1  UNL1        0.0940
      7 C          62.9914   86.8395   17.0485 C.3     1  UNL1        0.0002
      8 C          63.5466   87.7181   15.9669 C.3     1  UNL1        0.0055
      9 C          64.1655   88.1295   14.6638 C.3     1  UNL1        0.0254
     10 C          64.4083   89.5811   14.3740 C.3     1  UNL1        0.1508
     11 S          64.0322   90.6213   15.3872 S.O2    1  UNL1       -0.0100
     12 O          63.8489   91.9667   16.0247 O.2     1  UNL1       -0.1730
     13 O          64.5874   91.4999   14.3056 O.2     1  UNL1       -0.1730
     14 C          63.4133   90.2099   16.6901 C.3     1  UNL1        0.1508
     15 C          63.1706   88.7584   16.9800 C.3     1  UNL1        0.0254
     16 C          64.1684   83.9138   12.3585 C.3     1  UNL1        0.1406
     17 C          63.3059   84.2979   11.1929 C.3     1  UNL1        0.2268
     18 O          61.9330   84.8548   11.4271 O.3     1  UNL1       -0.4736
     19 C          61.3891   85.9167   10.5178 C.ar    1  UNL1        0.1395
     20 C          61.3326   85.6798    9.0377 C.ar    1  UNL1        0.0392
     21 C          60.7888   86.7416    8.1285 C.ar    1  UNL1        0.0334
     22 C          60.3014   88.0403    8.6994 C.ar    1  UNL1        0.1499
     23 F          59.7576   89.1022    7.7900 F       1  UNL1       -0.2035
     24 C          60.3579   88.2772   10.1794 C.ar    1  UNL1        0.0988
     25 C          60.9018   87.2154   11.0886 C.ar    1  UNL1        0.0494
     26 C          59.8706   89.5759   10.7503 C.1     1  UNL1        0.1028
     27 N          59.3832   90.8746   11.3211 N.1     1  UNL1       -0.1908
@<TRIPOS>BOND
     1     7     8    1
     2     1     8    1
     3     1     2    1
     4     2     3    1
     5     3     4    2
     6     3     5   am
     7     5    16    1
     8    16    17    1
     9    17    18    1
    10    18    19    1
    11    19    20   ar
    12    20    21   ar
    13    21    22   ar
    14    22    23    1
    15    22    24   ar
    16    24    26    1
    17    26    27    3
    18    24    25   ar
    19     5     6    1
    20     8     9    1
    21     9    10    1
    22    10    11    1
    23    11    12    2
    24    11    13    2
    25    11    14    1
    26    14    15    1
    27    15     8    1
    28     6     1    1
    29    25    19   ar
