@<TRIPOS>MOLECULE
*****
 32 33 0 0 0
SMALL
GASTEIGER

@<TRIPOS>ATOM
      1 C          60.9479   87.0051    8.9330 C.ar    1  UNL1       -0.0185
      2 C          60.1805   86.4900    7.7516 C.ar    1  UNL1       -0.0041
      3 C          59.4045   87.4406    6.8890 C.ar    1  UNL1        0.0057
      4 C          59.3959   88.9063    7.2078 C.ar    1  UNL1        0.0696
      5 C          60.1633   89.4214    8.3892 C.ar    1  UNL1        0.0095
      6 C          60.9393   88.4708    9.2518 C.ar    1  UNL1        0.0677
      7 C          64.0521   83.2027   12.3835 C.2     1  UNL1        0.2247
      8 O          65.0582   82.2786   11.7642 O.2     1  UNL1       -0.2749
      9 N          63.2760   84.1533   11.5209 N.am    1  UNL1       -0.2795
     10 C          62.2699   85.0774   12.1402 C.3     1  UNL1        0.0937
     11 C          61.4939   86.0280   11.2776 C.3     1  UNL1        0.0259
     12 C          61.7240   86.0545    9.7956 C.3     1  UNL1        0.0257
     13 C          62.7301   85.1304    9.1763 C.3     1  UNL1        0.0259
     14 C          63.5061   84.1798   10.0389 C.3     1  UNL1        0.0937
     15 C          62.7916   82.1009   13.6863 C.3     1  UNL1        0.0091
     16 C          63.8220   83.1762   13.8655 C.3     1  UNL1        0.0691
     17 C          64.8523   84.2514   14.0447 C.3     1  UNL1        0.0091
     18 C          63.5919   83.1497   15.3476 C.3     1  UNL1        0.0091
     19 C          58.6198   89.8569    6.3451 C.2     1  UNL1        0.3078
     20 O          57.1255   89.7519    6.2696 O.2     1  UNL1       -0.2516
     21 N          59.3382   90.9125    5.5580 N.am    1  UNL1       -0.1708
     22 H          60.3190   90.9814    5.6076 H       1  UNL1        0.2545
     23 C          58.5622   91.8631    4.6954 C.2     1  UNL1        0.3751
     24 N          57.1848   92.2936    5.1047 N.pl3   1  UNL1       -0.1313
     25 N          59.1635   92.3832    3.4234 N.pl3   1  UNL1       -0.2906
     26 H          56.7902   91.9523    5.9395 H       1  UNL1        0.3060
     27 H          60.0675   92.1006    3.1547 H       1  UNL1        0.2545
     28 H          58.6542   93.0071    2.8572 H       1  UNL1        0.2545
     29 C          61.7067   88.9859   10.4332 C.3     1  UNL1        0.4183
     30 F          62.4741   89.5010   11.6147 F       1  UNL1       -0.1659
     31 F          62.9790   88.9028    9.6431 F       1  UNL1       -0.1659
     32 F          60.4345   89.0690   11.2234 F       1  UNL1       -0.1659
@<TRIPOS>BOND
     1    15    16    1
     2    16    17    1
     3    16    18    1
     4    16     7    1
     5     7     8    2
     6     7     9   am
     7     9    10    1
     8    10    11    1
     9    11    12    1
    10    12     1    1
    11     1     2   ar
    12     2     3   ar
    13     3     4   ar
    14     4    19    1
    15    19    20    2
    16    19    21   am
    17    21    23    1
    18    23    24    2
    19    23    25    1
    20     4     5   ar
    21     5     6   ar
    22     6    29    1
    23    29    30    1
    24    29    31    1
    25    29    32    1
    26    12    13    1
    27    13    14    1
    28    14     9    1
    29     6     1   ar
    30    21    22    1
    31    24    26    1
    32    25    27    1
    33    25    28    1
@<TRIPOS>MOLECULE
*****
 32 33 0 0 0
SMALL
GASTEIGER

@<TRIPOS>ATOM
      1 C          64.8643   91.4191   13.2176 C.ar    1  UNL1       -0.0185
      2 C          64.2360   91.6197   11.8704 C.ar    1  UNL1       -0.0041
      3 C          64.6666   92.7670   11.0053 C.ar    1  UNL1        0.0057
      4 C          65.7255   93.7137   11.4874 C.ar    1  UNL1        0.0696
      5 C          66.3538   93.5131   12.8346 C.ar    1  UNL1        0.0095
      6 C          65.9232   92.3658   13.6997 C.ar    1  UNL1        0.0677
      7 C          63.1419   86.8300   16.6778 C.2     1  UNL1        0.2247
      8 O          62.7139   87.0778   18.0939 O.2     1  UNL1       -0.2749
      9 N          63.5725   87.9773   15.8128 N.am    1  UNL1       -0.2795
     10 C          64.0004   87.7295   14.3967 C.3     1  UNL1        0.0937
     11 C          64.4310   88.8767   13.5316 C.3     1  UNL1        0.0259
     12 C          64.4337   90.2718   14.0826 C.3     1  UNL1        0.0257
     13 C          64.0057   90.5196   15.4987 C.3     1  UNL1        0.0259
     14 C          63.5751   89.3723   16.3638 C.3     1  UNL1        0.0937
     15 C          61.6456   85.3870   16.2554 C.3     1  UNL1        0.0091
     16 C          63.1392   85.4349   16.1268 C.3     1  UNL1        0.0691
     17 C          64.6329   85.4829   15.9982 C.3     1  UNL1        0.0091
     18 C          63.1366   84.0397   15.5757 C.3     1  UNL1        0.0091
     19 C          66.1561   94.8609   10.6224 C.2     1  UNL1        0.3078
     20 O          66.5562   96.1637   11.2489 O.2     1  UNL1       -0.2516
     21 N          66.1865   94.7054    9.1308 N.am    1  UNL1       -0.1708
     22 H          65.9239   93.8503    8.7196 H       1  UNL1        0.2545
     23 C          66.6171   95.8527    8.2657 C.2     1  UNL1        0.3751
     24 N          65.7309   96.3261    7.1520 N.pl3   1  UNL1       -0.1313
     25 N          67.9340   96.5266    8.5145 N.pl3   1  UNL1       -0.2906
     26 H          64.8666   95.8838    6.9887 H       1  UNL1        0.3060
     27 H          68.5156   96.2159    9.2455 H       1  UNL1        0.2545
     28 H          68.2166   97.2796    7.9467 H       1  UNL1        0.2545
     29 C          66.5515   92.1652   15.0469 C.3     1  UNL1        0.4183
     30 F          67.1799   91.9646   16.3941 F       1  UNL1       -0.1659
     31 F          65.5528   93.1061   15.6529 F       1  UNL1       -0.1659
     32 F          67.5503   91.2244   14.4410 F       1  UNL1       -0.1659
@<TRIPOS>BOND
     1    15    16    1
     2    16    17    1
     3    16    18    1
     4    16     7    1
     5     7     8    2
     6     7     9   am
     7     9    10    1
     8    10    11    1
     9    11    12    1
    10    12     1    1
    11     1     2   ar
    12     2     3   ar
    13     3     4   ar
    14     4    19    1
    15    19    20    2
    16    19    21   am
    17    21    23    1
    18    23    24    2
    19    23    25    1
    20     4     5   ar
    21     5     6   ar
    22     6    29    1
    23    29    30    1
    24    29    31    1
    25    29    32    1
    26    12    13    1
    27    13    14    1
    28    14     9    1
    29     6     1   ar
    30    21    22    1
    31    24    26    1
    32    25    27    1
    33    25    28    1
@<TRIPOS>MOLECULE
*****
 32 33 0 0 0
SMALL
GASTEIGER

@<TRIPOS>ATOM
      1 C          61.0690   87.1097    8.8601 C.ar    1  UNL1       -0.0185
      2 C          60.8541   88.5133    9.3435 C.ar    1  UNL1       -0.0041
      3 C          60.1192   89.4985    8.4837 C.ar    1  UNL1        0.0057
      4 C          59.5991   89.0800    7.1404 C.ar    1  UNL1        0.0696
      5 C          59.8140   87.6765    6.6570 C.ar    1  UNL1        0.0095
      6 C          60.5490   86.6913    7.5169 C.ar    1  UNL1        0.0677
      7 C          64.0088   83.1692   12.2996 C.2     1  UNL1        0.2247
      8 O          65.0325   82.2584   11.6894 O.2     1  UNL1       -0.2749
      9 N          63.2738   84.1543   11.4397 N.am    1  UNL1       -0.2795
     10 C          62.2501   85.0651   12.0499 C.3     1  UNL1        0.0937
     11 C          61.5151   86.0502   11.1900 C.3     1  UNL1        0.0259
     12 C          61.8040   86.1246    9.7200 C.3     1  UNL1        0.0257
     13 C          62.8277   85.2138    9.1098 C.3     1  UNL1        0.0259
     14 C          63.5627   84.2287    9.9697 C.3     1  UNL1        0.0937
     15 C          62.6829   82.0420   13.5126 C.3     1  UNL1        0.0091
     16 C          63.7200   83.0948   13.7696 C.3     1  UNL1        0.0691
     17 C          64.7570   84.1476   14.0266 C.3     1  UNL1        0.0091
     18 C          63.4312   83.0205   15.2397 C.3     1  UNL1        0.0091
     19 C          58.8642   90.0652    6.2806 C.2     1  UNL1        0.3078
     20 O          57.3724   89.9800    6.1497 O.2     1  UNL1       -0.2516
     21 N          59.6211   91.1355    5.5516 N.am    1  UNL1       -0.1708
     22 H          60.6002   91.1915    5.6375 H       1  UNL1        0.2545
     23 C          58.8861   92.1207    4.6918 C.2     1  UNL1        0.3751
     24 N          57.4549   92.4556    4.9905 N.pl3   1  UNL1       -0.1313
     25 N          59.5825   92.7709    3.5331 N.pl3   1  UNL1       -0.2906
     26 H          56.9978   92.0289    5.7509 H       1  UNL1        0.3060
     27 H          60.5219   92.5510    3.3371 H       1  UNL1        0.2545
     28 H          59.1002   93.4175    2.9688 H       1  UNL1        0.2545
     29 C          60.7639   85.2877    7.0334 C.3     1  UNL1        0.4183
     30 F          60.9788   83.8841    6.5499 F       1  UNL1       -0.1659
     31 F          59.3570   84.9391    7.4198 F       1  UNL1       -0.1659
     32 F          62.1707   85.6362    6.6470 F       1  UNL1       -0.1659
@<TRIPOS>BOND
     1    15    16    1
     2    16    17    1
     3    16    18    1
     4    16     7    1
     5     7     8    2
     6     7     9   am
     7     9    10    1
     8    10    11    1
     9    11    12    1
    10    12     1    1
    11     1     2   ar
    12     2     3   ar
    13     3     4   ar
    14     4    19    1
    15    19    20    2
    16    19    21   am
    17    21    23    1
    18    23    24    2
    19    23    25    1
    20     4     5   ar
    21     5     6   ar
    22     6    29    1
    23    29    30    1
    24    29    31    1
    25    29    32    1
    26    12    13    1
    27    13    14    1
    28    14     9    1
    29     6     1   ar
    30    21    22    1
    31    24    26    1
    32    25    27    1
    33    25    28    1
@<TRIPOS>MOLECULE
*****
 32 33 0 0 0
SMALL
GASTEIGER

@<TRIPOS>ATOM
      1 C          64.7366   91.0445   13.2427 C.ar    1  UNL1       -0.0185
      2 C          65.8506   91.9302   13.7167 C.ar    1  UNL1       -0.0041
      3 C          66.2601   93.1213   12.9022 C.ar    1  UNL1        0.0057
      4 C          65.5556   93.4269   11.6137 C.ar    1  UNL1        0.0696
      5 C          64.4416   92.5412   11.1397 C.ar    1  UNL1        0.0095
      6 C          64.0321   91.3501   11.9542 C.ar    1  UNL1        0.0677
      7 C          63.0986   86.2799   16.5008 C.2     1  UNL1        0.2247
      8 O          62.6699   86.4582   17.9271 O.2     1  UNL1       -0.2749
      9 N          63.5081   87.4711   15.6863 N.am    1  UNL1       -0.2795
     10 C          63.9368   87.2928   14.2600 C.3     1  UNL1        0.0937
     11 C          64.3463   88.4840   13.4455 C.3     1  UNL1        0.0259
     12 C          64.3271   89.8534   14.0572 C.3     1  UNL1        0.0257
     13 C          63.8984   90.0316   15.4835 C.3     1  UNL1        0.0259
     14 C          63.4889   88.8405   16.2981 C.3     1  UNL1        0.0937
     15 C          61.6180   84.8952   15.8762 C.3     1  UNL1        0.0091
     16 C          63.1179   84.9105   15.8891 C.3     1  UNL1        0.0691
     17 C          64.6177   84.9258   15.9019 C.3     1  UNL1        0.0091
     18 C          63.1371   83.5410   15.2773 C.3     1  UNL1        0.0091
     19 C          65.9651   94.6180   10.7991 C.2     1  UNL1        0.3078
     20 O          66.0851   95.9650   11.4481 O.2     1  UNL1       -0.2516
     21 N          66.2545   94.4622    9.3356 N.am    1  UNL1       -0.1708
     22 H          66.1758   93.5781    8.9097 H       1  UNL1        0.2545
     23 C          66.6640   95.6534    8.5211 C.2     1  UNL1        0.3751
     24 N          67.8669   96.4563    8.9189 N.pl3   1  UNL1       -0.1313
     25 N          65.8706   96.0415    7.3087 N.pl3   1  UNL1       -0.2906
     26 H          68.3876   96.2016    9.7146 H       1  UNL1        0.3060
     27 H          65.0811   95.5145    7.0476 H       1  UNL1        0.2545
     28 H          66.1393   96.8233    6.7741 H       1  UNL1        0.2545
     29 C          62.9181   90.4644   11.4802 C.3     1  UNL1        0.4183
     30 F          61.8042   89.5788   11.0061 F       1  UNL1       -0.1659
     31 F          62.1223   90.8105   12.7036 F       1  UNL1       -0.1659
     32 F          63.7139   90.1184   10.2567 F       1  UNL1       -0.1659
@<TRIPOS>BOND
     1    15    16    1
     2    16    17    1
     3    16    18    1
     4    16     7    1
     5     7     8    2
     6     7     9   am
     7     9    10    1
     8    10    11    1
     9    11    12    1
    10    12     1    1
    11     1     2   ar
    12     2     3   ar
    13     3     4   ar
    14     4    19    1
    15    19    20    2
    16    19    21   am
    17    21    23    1
    18    23    24    2
    19    23    25    1
    20     4     5   ar
    21     5     6   ar
    22     6    29    1
    23    29    30    1
    24    29    31    1
    25    29    32    1
    26    12    13    1
    27    13    14    1
    28    14     9    1
    29     6     1   ar
    30    21    22    1
    31    24    26    1
    32    25    27    1
    33    25    28    1
@<TRIPOS>MOLECULE
*****
 32 33 0 0 0
SMALL
GASTEIGER

@<TRIPOS>ATOM
      1 C          61.1599   87.4108    9.5270 C.ar    1  UNL1       -0.0185
      2 C          60.5732   88.7445    9.8831 C.ar    1  UNL1       -0.0041
      3 C          59.9326   89.5895    8.8222 C.ar    1  UNL1        0.0057
      4 C          59.8786   89.1007    7.4051 C.ar    1  UNL1        0.0696
      5 C          60.4653   87.7670    7.0490 C.ar    1  UNL1        0.0095
      6 C          61.1060   86.9220    8.1099 C.ar    1  UNL1        0.0677
      7 C          63.7225   84.0309   13.7708 C.2     1  UNL1        0.2247
      8 O          64.5567   84.6734   14.8391 O.2     1  UNL1       -0.2749
      9 N          63.0818   84.8759   12.7099 N.am    1  UNL1       -0.2795
     10 C          62.2476   84.2335   11.6416 C.3     1  UNL1        0.0937
     11 C          61.6070   85.0784   10.5806 C.3     1  UNL1        0.0259
     12 C          61.8006   86.5658   10.5880 C.3     1  UNL1        0.0257
     13 C          62.6348   87.2083   11.6562 C.3     1  UNL1        0.0259
     14 C          63.2754   86.3633   12.7172 C.3     1  UNL1        0.0937
     15 C          64.5980   82.4095   12.7200 C.3     1  UNL1        0.0091
     16 C          63.5289   82.5435   13.7635 C.3     1  UNL1        0.0691
     17 C          62.4598   82.6775   14.8070 C.3     1  UNL1        0.0091
     18 C          63.3353   81.0560   13.7562 C.3     1  UNL1        0.0091
     19 C          59.2380   89.9457    6.3442 C.2     1  UNL1        0.3078
     20 O          60.0888   90.6357    5.3196 O.2     1  UNL1       -0.2516
     21 N          57.7465   90.1006    6.3078 N.am    1  UNL1       -0.1708
     22 H          57.1880   89.6477    6.9803 H       1  UNL1        0.2545
     23 C          57.1058   90.9455    5.2469 C.2     1  UNL1        0.3751
     24 N          55.6185   90.9096    5.0560 N.pl3   1  UNL1       -0.1313
     25 N          57.9526   91.8265    4.3768 N.pl3   1  UNL1       -0.2906
     26 H          55.0627   90.3314    5.6270 H       1  UNL1        0.3060
     27 H          58.9288   91.8501    4.5021 H       1  UNL1        0.2545
     28 H          57.5321   92.3810    3.6804 H       1  UNL1        0.2545
     29 C          61.6927   85.5882    7.7538 C.3     1  UNL1        0.4183
     30 F          62.2793   84.2544    7.3976 F       1  UNL1       -0.1659
     31 F          63.0573   86.0899    8.1227 F       1  UNL1       -0.1659
     32 F          60.3281   85.0865    7.3848 F       1  UNL1       -0.1659
@<TRIPOS>BOND
     1    15    16    1
     2    16    17    1
     3    16    18    1
     4    16     7    1
     5     7     8    2
     6     7     9   am
     7     9    10    1
     8    10    11    1
     9    11    12    1
    10    12     1    1
    11     1     2   ar
    12     2     3   ar
    13     3     4   ar
    14     4    19    1
    15    19    20    2
    16    19    21   am
    17    21    23    1
    18    23    24    2
    19    23    25    1
    20     4     5   ar
    21     5     6   ar
    22     6    29    1
    23    29    30    1
    24    29    31    1
    25    29    32    1
    26    12    13    1
    27    13    14    1
    28    14     9    1
    29     6     1   ar
    30    21    22    1
    31    24    26    1
    32    25    27    1
    33    25    28    1
