@<TRIPOS>MOLECULE
*****
 41 46 0 0 0
SMALL
GASTEIGER

@<TRIPOS>ATOM
      1 C          63.7163   90.3379   14.9259 C.ar    1  UNL1        0.1516
      2 N          63.0409   89.5188   13.8662 N.ar    1  UNL1       -0.2031
      3 C          63.3246   89.7853   12.4176 C.ar    1  UNL1        0.2093
      4 N          64.2837   90.8710   12.0286 N.ar    1  UNL1       -0.2003
      5 C          64.9592   91.6901   13.0883 C.ar    1  UNL1        0.1678
      6 C          64.6755   91.4235   14.5369 C.ar    1  UNL1        0.1483
      7 N          65.4854   92.3870   15.3528 N.ar    1  UNL1       -0.2195
      8 C          66.2696   93.2491   14.4084 C.ar    1  UNL1        0.1798
      9 N          65.9444   92.8183   13.0089 N.ar    1  UNL1       -0.2937
     10 C          66.5059   93.4117   11.7509 C.3     1  UNL1        0.1175
     11 C          66.4216   94.8523   11.3414 C.3     1  UNL1        0.1577
     12 O          65.7608   95.9524   12.1181 O.3     1  UNL1       -0.3801
     13 C          67.1138   94.9996   10.0189 C.3     1  UNL1        0.1390
     14 O          67.2670   96.2729    9.2409 O.3     1  UNL1       -0.3819
     15 C          67.6261   93.6501    9.6110 C.3     1  UNL1        0.0314
     16 C          68.0104   92.2067    9.4736 C.3     1  UNL1        0.0046
     17 C          67.2504   92.6687   10.6814 C.3     1  UNL1        0.0258
     18 H          65.3894   95.5911   12.9382 H       1  UNL1        0.2105
     19 H          67.7539   96.0944    8.4212 H       1  UNL1        0.2104
     20 N          63.4325   90.0713   16.3745 N.pl3   1  UNL1       -0.3165
     21 H          63.8662   90.6171   17.0696 H       1  UNL1        0.1483
     22 C          62.4881   88.9730   16.7639 C.3     1  UNL1        0.0929
     23 C          63.0243   87.6708   17.2806 C.3     1  UNL1        0.0476
     24 C          63.2842   84.1783   15.4138 C.ar    1  UNL1        0.1718
     25 C          62.8440   85.2423   16.3750 C.ar    1  UNL1        0.0358
     26 C          63.4646   86.6068   16.3194 C.ar    1  UNL1       -0.0173
     27 C          64.5254   86.9072   15.3024 C.ar    1  UNL1       -0.0009
     28 C          64.9658   85.8432   14.3410 C.ar    1  UNL1        0.0395
     29 C          64.3451   84.4787   14.3968 C.ar    1  UNL1        0.1677
     30 O          64.7854   83.4147   13.4356 O.3     1  UNL1       -0.5029
     31 H          65.4481   83.6023   12.8003 H       1  UNL1        0.2923
     32 C          61.9279   82.2754   14.2785 C.3     1  UNL1        0.2526
     33 O          62.6636   82.8139   15.4695 O.3     1  UNL1       -0.4684
     34 C          62.6491   88.9662   11.3579 C.1     1  UNL1       -0.0210
     35 C          61.9737   88.1471   10.2983 C.1     1  UNL1       -0.0568
     36 C          61.2983   87.3279    9.2386 C.ar    1  UNL1        0.0421
     37 C          59.8762   87.6175    8.8596 C.ar    1  UNL1        0.0082
     38 C          59.2008   86.7984    7.8000 C.ar    1  UNL1        0.0006
     39 C          59.9476   85.6896    7.1194 C.ar    1  UNL1        0.0000
     40 C          61.3697   85.4001    7.4984 C.ar    1  UNL1        0.0006
     41 C          62.0451   86.2192    8.5581 C.ar    1  UNL1        0.0082
@<TRIPOS>BOND
     1    32    33    1
     2    33    24    1
     3    24    25   ar
     4    25    26   ar
     5    26    23    1
     6    23    22    1
     7    22    20    1
     8    20     1    1
     9     1     2   ar
    10     2     3   ar
    11     3    34    1
    12    34    35    3
    13    35    36    1
    14    36    37   ar
    15    37    38   ar
    16    38    39   ar
    17    39    40   ar
    18    40    41   ar
    19     3     4   ar
    20     4     5   ar
    21     5     6   ar
    22     6     7   ar
    23     7     8   ar
    24     8     9   ar
    25    10     9    1
    26    10    11    1
    27    11    12    1
    28    11    13    1
    29    13    14    1
    30    13    15    1
    31    15    16    1
    32    17    16    1
    33    26    27   ar
    34    27    28   ar
    35    28    29   ar
    36    29    30    1
    37    29    24   ar
    38     6     1   ar
    39    17    10    1
    40    41    36   ar
    41     9     5   ar
    42    17    15    1
    43    20    21    1
    44    12    18    1
    45    14    19    1
    46    30    31    1
