@<TRIPOS>MOLECULE
*****
 27 30 0 0 0
SMALL
GASTEIGER

@<TRIPOS>ATOM
      1 C          66.0524   94.3414   11.0726 C.2     1  UNL1        0.0919
      2 C          66.3347   93.9778   12.5002 C.2     1  UNL1        0.0183
      3 C          65.7074   92.7549   13.1009 C.2     1  UNL1        0.0511
      4 C          64.7977   91.8954   12.2740 C.2     1  UNL1        0.2322
      5 N          64.0410   90.6397   12.5909 N.2     1  UNL1       -0.0308
      6 C          63.2910   90.2271   11.3591 C.2     1  UNL1        0.3774
      7 N          63.5841   91.2278   10.2809 N.2     1  UNL1       -0.0346
      8 C          64.5154   92.2589   10.8464 C.2     1  UNL1        0.2191
      9 C          65.1427   93.4819   10.2457 C.3     1  UNL1        0.1226
     10 C          62.4036   89.0247   11.2285 C.ar    1  UNL1        0.1157
     11 C          62.9686   87.6500   11.4306 C.ar    1  UNL1        0.0100
     12 C          62.0813   86.4477   11.3000 C.ar    1  UNL1        0.0004
     13 C          60.6289   86.6201   10.9673 C.ar    1  UNL1        0.0023
     14 C          60.0638   87.9949   10.7652 C.ar    1  UNL1        0.0299
     15 C          60.9512   89.1972   10.8958 C.ar    1  UNL1        0.1475
     16 F          60.3861   90.5719   10.6936 F       1  UNL1       -0.2039
     17 C          62.6464   85.0730   11.5021 C.ar    1  UNL1        0.0000
     18 C          63.2469   84.3314   10.3449 C.ar    1  UNL1        0.0000
     19 C          63.8120   82.9567   10.5470 C.ar    1  UNL1        0.0000
     20 C          63.7766   82.3236   11.9063 C.ar    1  UNL1        0.0000
     21 C          63.1761   83.0652   13.0636 C.ar    1  UNL1        0.0000
     22 C          62.6110   84.4400   12.8615 C.ar    1  UNL1        0.0000
     23 S          66.6797   95.5643   10.4719 S.O2    1  UNL1        0.0054
     24 O          67.7302   94.7090    9.8277 O.2     1  UNL1       -0.1689
     25 O          65.6292   96.4196   11.1161 O.2     1  UNL1       -0.1689
     26 C          67.5545   96.8543    8.3933 C.3     1  UNL1        0.0276
     27 C          67.3070   96.7873    9.8712 C.3     1  UNL1        0.1556
@<TRIPOS>BOND
     1    26    27    1
     2    27    23    1
     3    23    24    2
     4    23    25    2
     5    23     1    1
     6     1     2    2
     7     2     3    1
     8     3     4    2
     9     4     5    1
    10     5     6    2
    11     6    10    1
    12    10    11   ar
    13    11    12   ar
    14    12    17    1
    15    17    18   ar
    16    18    19   ar
    17    19    20   ar
    18    20    21   ar
    19    21    22   ar
    20    12    13   ar
    21    13    14   ar
    22    14    15   ar
    23    15    16    1
    24     6     7    1
    25     7     8    2
    26     8     9    1
    27     9     1    1
    28     8     4    1
    29    15    10   ar
    30    22    17   ar
@<TRIPOS>MOLECULE
*****
 27 30 0 0 0
SMALL
GASTEIGER

@<TRIPOS>ATOM
      1 C          65.1404   91.3266   13.7213 C.2     1  UNL1        0.0919
      2 C          64.9144   90.0570   14.4874 C.2     1  UNL1        0.0183
      3 C          63.9890   89.0084   13.9451 C.2     1  UNL1        0.0511
      4 C          63.2896   89.2293   12.6367 C.2     1  UNL1        0.2322
      5 N          62.3276   88.3826   11.8573 N.2     1  UNL1       -0.0308
      6 C          61.9591   89.1289   10.6093 C.2     1  UNL1        0.3774
      7 N          62.6933   90.4368   10.6175 N.2     1  UNL1       -0.0346
      8 C          63.5156   90.4989   11.8706 C.2     1  UNL1        0.2191
      9 C          64.4410   91.5475   12.4128 C.3     1  UNL1        0.1226
     10 C          61.0210   88.6510    9.5408 C.ar    1  UNL1        0.1157
     11 C          60.5682   89.5925    8.4644 C.ar    1  UNL1        0.0100
     12 C          59.6301   89.1147    7.3959 C.ar    1  UNL1        0.0004
     13 C          59.1449   87.6954    7.4038 C.ar    1  UNL1        0.0023
     14 C          59.5977   86.7539    8.4802 C.ar    1  UNL1        0.0299
     15 C          60.5358   87.2317    9.5487 C.ar    1  UNL1        0.1475
     16 F          60.9886   86.2902   10.6250 F       1  UNL1       -0.2039
     17 C          59.1773   90.0561    6.3196 C.ar    1  UNL1        0.0000
     18 C          60.1893   90.7851    5.4863 C.ar    1  UNL1        0.0000
     19 C          59.7365   91.7266    4.4099 C.ar    1  UNL1        0.0000
     20 C          58.2717   91.9391    4.1668 C.ar    1  UNL1        0.0000
     21 C          57.2597   91.2101    5.0001 C.ar    1  UNL1        0.0000
     22 C          57.7125   90.2687    6.0765 C.ar    1  UNL1        0.0000
     23 S          66.0658   92.3752   14.2635 S.O2    1  UNL1        0.0054
     24 O          65.3294   92.3494   15.5701 O.2     1  UNL1       -0.1689
     25 O          66.8021   92.4010   12.9570 O.2     1  UNL1       -0.1689
     26 C          67.8119   93.1400   16.0288 C.3     1  UNL1        0.0276
     27 C          66.9912   93.4238   14.8058 C.3     1  UNL1        0.1556
@<TRIPOS>BOND
     1    26    27    1
     2    27    23    1
     3    23    24    2
     4    23    25    2
     5    23     1    1
     6     1     2    2
     7     2     3    1
     8     3     4    2
     9     4     5    1
    10     5     6    2
    11     6    10    1
    12    10    11   ar
    13    11    12   ar
    14    12    17    1
    15    17    18   ar
    16    18    19   ar
    17    19    20   ar
    18    20    21   ar
    19    21    22   ar
    20    12    13   ar
    21    13    14   ar
    22    14    15   ar
    23    15    16    1
    24     6     7    1
    25     7     8    2
    26     8     9    1
    27     9     1    1
    28     8     4    1
    29    15    10   ar
    30    22    17   ar
@<TRIPOS>MOLECULE
*****
 27 30 0 0 0
SMALL
GASTEIGER

@<TRIPOS>ATOM
      1 C          66.0489   93.8578   11.9210 C.2     1  UNL1        0.0919
      2 C          66.6174   94.2589   13.2498 C.2     1  UNL1        0.0183
      3 C          66.4384   93.3667   14.4423 C.2     1  UNL1        0.0511
      4 C          65.6909   92.0734   14.3059 C.2     1  UNL1        0.2322
      5 N          65.3579   90.9973   15.2964 N.2     1  UNL1       -0.0308
      6 C          64.5835   89.9311   14.5797 C.2     1  UNL1        0.3774
      7 N          64.4379   90.3483   13.1462 N.2     1  UNL1       -0.0346
      8 C          65.1224   91.6723   12.9770 C.2     1  UNL1        0.2191
      9 C          65.3014   92.5645   11.7846 C.3     1  UNL1        0.1226
     10 C          64.0486   88.6693   15.1894 C.ar    1  UNL1        0.1157
     11 C          64.1271   87.3778   14.4306 C.ar    1  UNL1        0.0100
     12 C          63.5922   86.1160   15.0403 C.ar    1  UNL1        0.0004
     13 C          62.9789   86.1457   16.4088 C.ar    1  UNL1        0.0023
     14 C          62.9004   87.4373   17.1676 C.ar    1  UNL1        0.0299
     15 C          63.4352   88.6990   16.5579 C.ar    1  UNL1        0.1475
     16 F          63.3567   89.9906   17.3167 F       1  UNL1       -0.2039
     17 C          63.6708   84.8245   14.2815 C.ar    1  UNL1        0.0000
     18 C          63.5516   84.8246   12.7863 C.ar    1  UNL1        0.0000
     19 C          63.6301   83.5331   12.0274 C.ar    1  UNL1        0.0000
     20 C          63.8278   82.2414   12.7638 C.ar    1  UNL1        0.0000
     21 C          63.9469   82.2412   14.2591 C.ar    1  UNL1        0.0000
     22 C          63.8684   83.5327   15.0179 C.ar    1  UNL1        0.0000
     23 S          66.2278   94.7500   10.7285 S.O2    1  UNL1        0.0054
     24 O          66.3984   93.5446    9.8522 O.2     1  UNL1       -0.1689
     25 O          66.0573   95.9554   11.6048 O.2     1  UNL1       -0.1689
     26 C          67.4363   95.3085    8.4975 C.3     1  UNL1        0.0276
     27 C          66.4068   95.6422    9.5361 C.3     1  UNL1        0.1556
@<TRIPOS>BOND
     1    26    27    1
     2    27    23    1
     3    23    24    2
     4    23    25    2
     5    23     1    1
     6     1     2    2
     7     2     3    1
     8     3     4    2
     9     4     5    1
    10     5     6    2
    11     6    10    1
    12    10    11   ar
    13    11    12   ar
    14    12    17    1
    15    17    18   ar
    16    18    19   ar
    17    19    20   ar
    18    20    21   ar
    19    21    22   ar
    20    12    13   ar
    21    13    14   ar
    22    14    15   ar
    23    15    16    1
    24     6     7    1
    25     7     8    2
    26     8     9    1
    27     9     1    1
    28     8     4    1
    29    15    10   ar
    30    22    17   ar
@<TRIPOS>MOLECULE
*****
 27 30 0 0 0
SMALL
GASTEIGER

@<TRIPOS>ATOM
      1 C          63.4477   82.3501   12.3445 C.2     1  UNL1        0.0919
      2 C          63.7325   81.8796   13.7400 C.2     1  UNL1        0.0183
      3 C          63.9282   82.8774   14.8427 C.2     1  UNL1        0.0511
      4 C          63.8390   84.3458   14.5500 C.2     1  UNL1        0.2322
      5 N          63.9855   85.5546   15.4259 N.2     1  UNL1       -0.0308
      6 C          63.7913   86.7723   14.5718 C.2     1  UNL1        0.3774
      7 N          63.5248   86.3161   13.1680 N.2     1  UNL1       -0.0346
      8 C          63.5543   84.8164   13.1545 C.2     1  UNL1        0.2191
      9 C          63.3586   83.8186   12.0518 C.3     1  UNL1        0.1226
     10 C          63.8528   88.1963   15.0395 C.ar    1  UNL1        0.1157
     11 C          64.4476   89.2513   14.1545 C.ar    1  UNL1        0.0100
     12 C          64.5091   90.6752   14.6221 C.ar    1  UNL1        0.0004
     13 C          63.9759   91.0441   15.9747 C.ar    1  UNL1        0.0023
     14 C          63.3811   89.9890   16.8597 C.ar    1  UNL1        0.0299
     15 C          63.3196   88.5651   16.3921 C.ar    1  UNL1        0.1475
     16 F          62.7249   87.5101   17.2771 F       1  UNL1       -0.2039
     17 C          65.1038   91.7302   13.7371 C.ar    1  UNL1        0.0000
     18 C          66.0456   92.7470   14.3109 C.ar    1  UNL1        0.0000
     19 C          66.6403   93.8020   13.4259 C.ar    1  UNL1        0.0000
     20 C          66.2933   93.8403   11.9672 C.ar    1  UNL1        0.0000
     21 C          65.3515   92.8236   11.3934 C.ar    1  UNL1        0.0000
     22 C          64.7568   91.7685   12.2784 C.ar    1  UNL1        0.0000
     23 S          63.2521   81.3523   11.2418 S.O2    1  UNL1        0.0054
     24 O          63.7768   82.3467   10.2489 O.2     1  UNL1       -0.1689
     25 O          62.7273   80.3579   12.2347 O.2     1  UNL1       -0.1689
     26 C          62.8033   78.9131   10.4680 C.3     1  UNL1        0.0276
     27 C          63.0564   80.3545   10.1390 C.3     1  UNL1        0.1556
@<TRIPOS>BOND
     1    26    27    1
     2    27    23    1
     3    23    24    2
     4    23    25    2
     5    23     1    1
     6     1     2    2
     7     2     3    1
     8     3     4    2
     9     4     5    1
    10     5     6    2
    11     6    10    1
    12    10    11   ar
    13    11    12   ar
    14    12    17    1
    15    17    18   ar
    16    18    19   ar
    17    19    20   ar
    18    20    21   ar
    19    21    22   ar
    20    12    13   ar
    21    13    14   ar
    22    14    15   ar
    23    15    16    1
    24     6     7    1
    25     7     8    2
    26     8     9    1
    27     9     1    1
    28     8     4    1
    29    15    10   ar
    30    22    17   ar
@<TRIPOS>MOLECULE
*****
 27 30 0 0 0
SMALL
GASTEIGER

@<TRIPOS>ATOM
      1 C          62.7846   83.9322   13.3398 C.2     1  UNL1        0.0919
      2 C          62.2101   84.3992   12.0352 C.2     1  UNL1        0.0183
      3 C          62.3473   85.8360   11.6268 C.2     1  UNL1        0.0511
      4 C          63.0589   86.8058   12.5229 C.2     1  UNL1        0.2322
      5 N          63.3475   88.2715   12.3876 N.2     1  UNL1       -0.0308
      6 C          64.1003   88.7104   13.6086 C.2     1  UNL1        0.3774
      7 N          64.2770   87.5159   14.4985 N.2     1  UNL1       -0.0346
      8 C          63.6334   86.3388   13.8275 C.2     1  UNL1        0.2191
      9 C          63.4962   84.9020   14.2359 C.3     1  UNL1        0.1226
     10 C          64.5904   90.0999   13.8901 C.ar    1  UNL1        0.1157
     11 C          65.1649   90.9315   12.7818 C.ar    1  UNL1        0.0100
     12 C          65.6550   92.3209   13.0633 C.ar    1  UNL1        0.0004
     13 C          65.5705   92.8787   14.4531 C.ar    1  UNL1        0.0023
     14 C          64.9960   92.0471   15.5615 C.ar    1  UNL1        0.0299
     15 C          64.5060   90.6577   15.2800 C.ar    1  UNL1        0.1475
     16 F          63.9315   89.8261   16.3883 F       1  UNL1       -0.2039
     17 C          66.2295   93.1525   11.9550 C.ar    1  UNL1        0.0000
     18 C          66.9471   92.4913   10.8158 C.ar    1  UNL1        0.0000
     19 C          67.5216   93.3229    9.7075 C.ar    1  UNL1        0.0000
     20 C          67.3785   94.8157    9.7383 C.ar    1  UNL1        0.0000
     21 C          66.6609   95.4769   10.8775 C.ar    1  UNL1        0.0000
     22 C          66.0864   94.6453   11.9858 C.ar    1  UNL1        0.0000
     23 S          62.6474   82.4954   13.7482 S.O2    1  UNL1        0.0054
     24 O          62.3749   82.1162   12.3227 O.2     1  UNL1       -0.1689
     25 O          62.9198   82.8746   15.1737 O.2     1  UNL1       -0.1689
     26 C          62.3794   79.9909   13.1112 C.3     1  UNL1        0.0276
     27 C          62.5102   81.0586   14.1566 C.3     1  UNL1        0.1556
@<TRIPOS>BOND
     1    26    27    1
     2    27    23    1
     3    23    24    2
     4    23    25    2
     5    23     1    1
     6     1     2    2
     7     2     3    1
     8     3     4    2
     9     4     5    1
    10     5     6    2
    11     6    10    1
    12    10    11   ar
    13    11    12   ar
    14    12    17    1
    15    17    18   ar
    16    18    19   ar
    17    19    20   ar
    18    20    21   ar
    19    21    22   ar
    20    12    13   ar
    21    13    14   ar
    22    14    15   ar
    23    15    16    1
    24     6     7    1
    25     7     8    2
    26     8     9    1
    27     9     1    1
    28     8     4    1
    29    15    10   ar
    30    22    17   ar
@<TRIPOS>MOLECULE
*****
 27 30 0 0 0
SMALL
GASTEIGER

@<TRIPOS>ATOM
      1 C          65.9012   92.2362   14.8668 C.2     1  UNL1        0.0919
      2 C          65.0805   91.7584   16.0278 C.2     1  UNL1        0.0183
      3 C          63.8548   90.9274   15.7884 C.2     1  UNL1        0.0511
      4 C          63.4499   90.5743   14.3879 C.2     1  UNL1        0.2322
      5 N          62.3010   89.7765   13.8462 N.2     1  UNL1       -0.0308
      6 C          62.4116   89.7613   12.3504 C.2     1  UNL1        0.3774
      7 N          63.6289   90.5497   11.9676 N.2     1  UNL1       -0.0346
      8 C          64.2706   91.0522   13.2269 C.2     1  UNL1        0.2191
      9 C          65.4962   91.8831   13.4663 C.3     1  UNL1        0.1226
     10 C          61.4702   89.0777   11.4035 C.ar    1  UNL1        0.1157
     11 C          61.9878   88.0462   10.4454 C.ar    1  UNL1        0.0100
     12 C          61.0465   87.3626    9.4986 C.ar    1  UNL1        0.0004
     13 C          59.5874   87.7104    9.5100 C.ar    1  UNL1        0.0023
     14 C          59.0698   88.7419   10.4682 C.ar    1  UNL1        0.0299
     15 C          60.0111   89.4255   11.4149 C.ar    1  UNL1        0.1475
     16 F          59.4935   90.4570   12.3731 F       1  UNL1       -0.2039
     17 C          61.5641   86.3311    8.5404 C.ar    1  UNL1        0.0000
     18 C          62.9520   85.7859    8.7030 C.ar    1  UNL1        0.0000
     19 C          63.4697   84.7544    7.7449 C.ar    1  UNL1        0.0000
     20 C          62.5995   84.2682    6.6241 C.ar    1  UNL1        0.0000
     21 C          61.2116   84.8134    6.4615 C.ar    1  UNL1        0.0000
     22 C          60.6939   85.8448    7.4196 C.ar    1  UNL1        0.0000
     23 S          67.1268   93.0672   15.1062 S.O2    1  UNL1        0.0054
     24 O          66.8579   93.0387   16.5816 O.2     1  UNL1       -0.1689
     25 O          67.3957   93.0957   13.6308 O.2     1  UNL1       -0.1689
     26 C          69.5057   93.3286   16.1173 C.3     1  UNL1        0.0276
     27 C          68.3524   93.8982   15.3456 C.3     1  UNL1        0.1556
@<TRIPOS>BOND
     1    26    27    1
     2    27    23    1
     3    23    24    2
     4    23    25    2
     5    23     1    1
     6     1     2    2
     7     2     3    1
     8     3     4    2
     9     4     5    1
    10     5     6    2
    11     6    10    1
    12    10    11   ar
    13    11    12   ar
    14    12    17    1
    15    17    18   ar
    16    18    19   ar
    17    19    20   ar
    18    20    21   ar
    19    21    22   ar
    20    12    13   ar
    21    13    14   ar
    22    14    15   ar
    23    15    16    1
    24     6     7    1
    25     7     8    2
    26     8     9    1
    27     9     1    1
    28     8     4    1
    29    15    10   ar
    30    22    17   ar
@<TRIPOS>MOLECULE
*****
 27 30 0 0 0
SMALL
GASTEIGER

@<TRIPOS>ATOM
      1 C          62.8169   82.5154   13.7450 C.2     1  UNL1        0.0919
      2 C          63.0525   82.7421   15.2089 C.2     1  UNL1        0.0183
      3 C          63.3640   84.1197   15.7140 C.2     1  UNL1        0.0511
      4 C          63.4399   85.2707   14.7552 C.2     1  UNL1        0.2322
      5 N          63.7254   86.7292   14.9584 N.2     1  UNL1       -0.0308
      6 C          63.6663   87.4040   13.6200 C.2     1  UNL1        0.3774
      7 N          63.3443   86.3625   12.5897 N.2     1  UNL1       -0.0346
      8 C          63.2043   85.0441   13.2913 C.2     1  UNL1        0.2191
      9 C          62.8928   83.6664   12.7862 C.3     1  UNL1        0.1226
     10 C          63.8900   88.8639   13.3581 C.ar    1  UNL1        0.1157
     11 C          65.0279   89.5796   14.0236 C.ar    1  UNL1        0.0100
     12 C          65.2516   91.0394   13.7617 C.ar    1  UNL1        0.0004
     13 C          64.3374   91.7837   12.8342 C.ar    1  UNL1        0.0023
     14 C          63.1995   91.0680   12.1686 C.ar    1  UNL1        0.0299
     15 C          62.9758   89.6082   12.4305 C.ar    1  UNL1        0.1475
     16 F          61.8379   88.8925   11.7650 F       1  UNL1       -0.2039
     17 C          66.3896   91.7551   14.4273 C.ar    1  UNL1        0.0000
     18 C          66.1664   92.4766   15.7233 C.ar    1  UNL1        0.0000
     19 C          67.3043   93.1922   16.3889 C.ar    1  UNL1        0.0000
     20 C          68.6654   93.1864   15.7585 C.ar    1  UNL1        0.0000
     21 C          68.8885   92.4649   14.4625 C.ar    1  UNL1        0.0000
     22 C          67.7506   91.7493   13.7969 C.ar    1  UNL1        0.0000
     23 S          62.5054   81.1378   13.2399 S.O2    1  UNL1        0.0054
     24 O          62.8110   80.5719   14.5950 O.2     1  UNL1       -0.1689
     25 O          62.1999   81.7037   11.8848 O.2     1  UNL1       -0.1689
     26 C          62.7013   79.3207   11.3934 C.3     1  UNL1        0.0276
     27 C          62.1939   79.7602   12.7348 C.3     1  UNL1        0.1556
@<TRIPOS>BOND
     1    26    27    1
     2    27    23    1
     3    23    24    2
     4    23    25    2
     5    23     1    1
     6     1     2    2
     7     2     3    1
     8     3     4    2
     9     4     5    1
    10     5     6    2
    11     6    10    1
    12    10    11   ar
    13    11    12   ar
    14    12    17    1
    15    17    18   ar
    16    18    19   ar
    17    19    20   ar
    18    20    21   ar
    19    21    22   ar
    20    12    13   ar
    21    13    14   ar
    22    14    15   ar
    23    15    16    1
    24     6     7    1
    25     7     8    2
    26     8     9    1
    27     9     1    1
    28     8     4    1
    29    15    10   ar
    30    22    17   ar
@<TRIPOS>MOLECULE
*****
 27 30 0 0 0
SMALL
GASTEIGER

@<TRIPOS>ATOM
      1 C          66.1967   92.4095   15.3151 C.2     1  UNL1        0.0919
      2 C          65.1607   92.2165   16.3826 C.2     1  UNL1        0.0183
      3 C          64.0156   91.2747   16.1549 C.2     1  UNL1        0.0511
      4 C          63.9065   90.5259   14.8597 C.2     1  UNL1        0.2322
      5 N          62.8977   89.5380   14.3534 N.2     1  UNL1       -0.0308
      6 C          63.3102   89.1205   12.9730 C.2     1  UNL1        0.3774
      7 N          64.5739   89.8504   12.6261 N.2     1  UNL1       -0.0346
      8 C          64.9424   90.7190   13.7923 C.2     1  UNL1        0.2191
      9 C          66.0875   91.6608   14.0200 C.3     1  UNL1        0.1226
     10 C          62.5860   88.1444   12.0938 C.ar    1  UNL1        0.1157
     11 C          63.0000   86.7028   12.0736 C.ar    1  UNL1        0.0100
     12 C          62.2759   85.7268   11.1944 C.ar    1  UNL1        0.0004
     13 C          61.1378   86.1923   10.3354 C.ar    1  UNL1        0.0023
     14 C          60.7238   87.6339   10.3556 C.ar    1  UNL1        0.0299
     15 C          61.4479   88.6100   11.2348 C.ar    1  UNL1        0.1475
     16 F          61.0339   90.0516   11.2549 F       1  UNL1       -0.2039
     17 C          62.6900   84.2852   11.1743 C.ar    1  UNL1        0.0000
     18 C          62.2363   83.3593   12.2636 C.ar    1  UNL1        0.0000
     19 C          62.6503   81.9177   12.2435 C.ar    1  UNL1        0.0000
     20 C          63.5180   81.4020   11.1339 C.ar    1  UNL1        0.0000
     21 C          63.9717   82.3279   10.0446 C.ar    1  UNL1        0.0000
     22 C          63.5577   83.7695   10.0647 C.ar    1  UNL1        0.0000
     23 S          67.3417   93.3513   15.5428 S.O2    1  UNL1        0.0054
     24 O          66.7792   94.2844   14.5118 O.2     1  UNL1       -0.1689
     25 O          67.9042   92.4181   16.5737 O.2     1  UNL1       -0.1689
     26 C          69.8738   93.7550   15.9618 C.3     1  UNL1        0.0276
     27 C          68.4868   94.2931   15.7704 C.3     1  UNL1        0.1556
@<TRIPOS>BOND
     1    26    27    1
     2    27    23    1
     3    23    24    2
     4    23    25    2
     5    23     1    1
     6     1     2    2
     7     2     3    1
     8     3     4    2
     9     4     5    1
    10     5     6    2
    11     6    10    1
    12    10    11   ar
    13    11    12   ar
    14    12    17    1
    15    17    18   ar
    16    18    19   ar
    17    19    20   ar
    18    20    21   ar
    19    21    22   ar
    20    12    13   ar
    21    13    14   ar
    22    14    15   ar
    23    15    16    1
    24     6     7    1
    25     7     8    2
    26     8     9    1
    27     9     1    1
    28     8     4    1
    29    15    10   ar
    30    22    17   ar
@<TRIPOS>MOLECULE
*****
 27 30 0 0 0
SMALL
GASTEIGER

@<TRIPOS>ATOM
      1 C          61.0342   87.0490    8.7997 C.2     1  UNL1        0.0919
      2 C          60.1965   88.2859    8.6644 C.2     1  UNL1        0.0183
      3 C          60.3334   89.3973    9.6624 C.2     1  UNL1        0.0511
      4 C          61.3080   89.2719   10.7957 C.2     1  UNL1        0.2322
      5 N          61.6595   90.1955   11.9241 N.2     1  UNL1       -0.0308
      6 C          62.7145   89.5294   12.7568 C.2     1  UNL1        0.3774
      7 N          63.0150   88.1942   12.1431 N.2     1  UNL1       -0.0346
      8 C          62.1457   88.0350   10.9310 C.2     1  UNL1        0.2191
      9 C          62.0088   86.9236    9.9330 C.3     1  UNL1        0.1226
     10 C          63.3563   90.0988   13.9873 C.ar    1  UNL1        0.1157
     11 C          64.7241   90.7090   13.9059 C.ar    1  UNL1        0.0100
     12 C          65.3659   91.2783   15.1363 C.ar    1  UNL1        0.0004
     13 C          64.6399   91.2373   16.4482 C.ar    1  UNL1        0.0023
     14 C          63.2720   90.6271   16.5297 C.ar    1  UNL1        0.0299
     15 C          62.6303   90.0578   15.2993 C.ar    1  UNL1        0.1475
     16 F          61.2625   89.4475   15.3807 F       1  UNL1       -0.2039
     17 C          66.7337   91.8886   15.0548 C.ar    1  UNL1        0.0000
     18 C          67.2274   92.7731   16.1610 C.ar    1  UNL1        0.0000
     19 C          68.5952   93.3834   16.0795 C.ar    1  UNL1        0.0000
     20 C          69.4693   93.1092   14.8918 C.ar    1  UNL1        0.0000
     21 C          68.9756   92.2247   13.7855 C.ar    1  UNL1        0.0000
     22 C          67.6078   91.6144   13.8670 C.ar    1  UNL1        0.0000
     23 S          60.8973   85.9376    7.8018 S.O2    1  UNL1        0.0054
     24 O          59.4753   86.3413    7.5472 O.2     1  UNL1       -0.1689
     25 O          62.3193   85.5338    8.0564 O.2     1  UNL1       -0.1689
     26 C          61.9491   84.3890    6.0002 C.3     1  UNL1        0.0276
     27 C          60.7604   84.8261    6.8038 C.3     1  UNL1        0.1556
@<TRIPOS>BOND
     1    26    27    1
     2    27    23    1
     3    23    24    2
     4    23    25    2
     5    23     1    1
     6     1     2    2
     7     2     3    1
     8     3     4    2
     9     4     5    1
    10     5     6    2
    11     6    10    1
    12    10    11   ar
    13    11    12   ar
    14    12    17    1
    15    17    18   ar
    16    18    19   ar
    17    19    20   ar
    18    20    21   ar
    19    21    22   ar
    20    12    13   ar
    21    13    14   ar
    22    14    15   ar
    23    15    16    1
    24     6     7    1
    25     7     8    2
    26     8     9    1
    27     9     1    1
    28     8     4    1
    29    15    10   ar
    30    22    17   ar
