@<TRIPOS>MOLECULE
*****
 29 30 0 0 0
SMALL
GASTEIGER

@<TRIPOS>ATOM
      1 C          64.8491   91.3386   13.4807 C.ar    1  UNL1       -0.0185
      2 C          64.2177   91.5094   12.1309 C.ar    1  UNL1       -0.0041
      3 C          64.6682   92.6185   11.2271 C.ar    1  UNL1        0.0057
      4 C          65.7501   93.5568   11.6730 C.ar    1  UNL1        0.0696
      5 C          66.3816   93.3860   13.0228 C.ar    1  UNL1        0.0095
      6 C          65.9311   92.2769   13.9267 C.ar    1  UNL1        0.0677
      7 C          63.2441   85.4731   16.6853 C.3     1  UNL1        0.0948
      8 C          63.0471   86.9022   17.0961 C.2     1  UNL1        0.2261
      9 O          62.3997   87.2222   18.4108 O.2     1  UNL1       -0.2749
     10 N          63.4976   88.0113   16.1923 N.am    1  UNL1       -0.2795
     11 C          64.1451   87.6913   14.8776 C.3     1  UNL1        0.0937
     12 C          64.5956   88.8004   13.9738 C.3     1  UNL1        0.0259
     13 C          64.3986   90.2295   14.3846 C.3     1  UNL1        0.0257
     14 C          63.7512   90.5495   15.6992 C.3     1  UNL1        0.0259
     15 C          63.3007   89.4404   16.6031 C.3     1  UNL1        0.0937
     16 C          66.2006   94.6659   10.7692 C.2     1  UNL1        0.3078
     17 O          66.6467   95.9740   11.3520 O.2     1  UNL1       -0.2516
     18 N          66.2051   94.4669    9.2825 N.am    1  UNL1       -0.1708
     19 H          65.9123   93.6083    8.8999 H       1  UNL1        0.2545
     20 C          66.6556   95.5760    8.3786 C.2     1  UNL1        0.3751
     21 N          65.7631   96.0492    7.2698 N.pl3   1  UNL1       -0.1313
     22 N          67.9986   96.2119    8.5837 N.pl3   1  UNL1       -0.2906
     23 H          64.8817   95.6318    7.1352 H       1  UNL1        0.3060
     24 H          68.5843   95.9013    9.3115 H       1  UNL1        0.2545
     25 H          68.2943   96.9398    7.9905 H       1  UNL1        0.2545
     26 C          66.5626   92.1061   15.2766 C.3     1  UNL1        0.4183
     27 F          67.1941   91.9354   16.6264 F       1  UNL1       -0.1659
     28 F          67.5372   91.1245   14.6965 F       1  UNL1       -0.1659
     29 F          65.5880   93.0878   15.8566 F       1  UNL1       -0.1659
@<TRIPOS>BOND
     1     7     8    1
     2     8     9    2
     3     8    10   am
     4    10    11    1
     5    11    12    1
     6    12    13    1
     7    13     1    1
     8     1     2   ar
     9     2     3   ar
    10     3     4   ar
    11     4    16    1
    12    16    17    2
    13    16    18   am
    14    18    20    1
    15    20    21    2
    16    20    22    1
    17     4     5   ar
    18     5     6   ar
    19     6    26    1
    20    26    27    1
    21    26    28    1
    22    26    29    1
    23    13    14    1
    24    14    15    1
    25    15    10    1
    26     6     1   ar
    27    18    19    1
    28    21    23    1
    29    22    24    1
    30    22    25    1
@<TRIPOS>MOLECULE
*****
 29 30 0 0 0
SMALL
GASTEIGER

@<TRIPOS>ATOM
      1 C          60.9884   86.9492    9.0003 C.ar    1  UNL1       -0.0185
      2 C          60.1998   86.4285    7.8354 C.ar    1  UNL1       -0.0041
      3 C          59.4227   87.3773    6.9716 C.ar    1  UNL1        0.0057
      4 C          59.4343   88.8467    7.2728 C.ar    1  UNL1        0.0696
      5 C          60.2228   89.3673    8.4377 C.ar    1  UNL1        0.0095
      6 C          60.9999   88.4186    9.3014 C.ar    1  UNL1        0.0677
      7 C          63.8510   83.1140   13.9345 C.3     1  UNL1        0.0948
      8 C          64.0965   83.1542   12.4553 C.2     1  UNL1        0.2261
      9 O          65.1191   82.2456   11.8399 O.2     1  UNL1       -0.2749
     10 N          63.3195   84.1029   11.5915 N.am    1  UNL1       -0.2795
     11 C          62.2969   85.0115   12.2070 C.3     1  UNL1        0.0937
     12 C          61.5199   85.9603   11.3432 C.3     1  UNL1        0.0259
     13 C          61.7654   86.0004    9.8640 C.3     1  UNL1        0.0257
     14 C          62.7880   85.0919    9.2486 C.3     1  UNL1        0.0259
     15 C          63.5650   84.1431   10.1124 C.3     1  UNL1        0.0937
     16 C          58.6572   89.7954    6.4090 C.2     1  UNL1        0.3078
     17 O          57.1637   89.6835    6.3272 O.2     1  UNL1       -0.2516
     18 N          59.3737   90.8561    5.6270 N.am    1  UNL1       -0.1708
     19 H          60.3540   90.9296    5.6807 H       1  UNL1        0.2545
     20 C          58.5967   91.8049    4.7633 C.2     1  UNL1        0.3751
     21 N          57.2114   92.2193    5.1622 N.pl3   1  UNL1       -0.1313
     22 N          59.2050   92.3392    3.5005 N.pl3   1  UNL1       -0.2906
     23 H          56.8122   91.8686    5.9910 H       1  UNL1        0.3060
     24 H          60.1142   92.0672    3.2387 H       1  UNL1        0.2545
     25 H          58.6950   92.9619    2.9336 H       1  UNL1        0.2545
     26 C          61.7885   88.9393   10.4664 C.3     1  UNL1        0.4183
     27 F          62.5770   89.4599   11.6313 F       1  UNL1       -0.1659
     28 F          63.0431   88.8722    9.6471 F       1  UNL1       -0.1659
     29 F          60.5338   89.0063   11.2857 F       1  UNL1       -0.1659
@<TRIPOS>BOND
     1     7     8    1
     2     8     9    2
     3     8    10   am
     4    10    11    1
     5    11    12    1
     6    12    13    1
     7    13     1    1
     8     1     2   ar
     9     2     3   ar
    10     3     4   ar
    11     4    16    1
    12    16    17    2
    13    16    18   am
    14    18    20    1
    15    20    21    2
    16    20    22    1
    17     4     5   ar
    18     5     6   ar
    19     6    26    1
    20    26    27    1
    21    26    28    1
    22    26    29    1
    23    13    14    1
    24    14    15    1
    25    15    10    1
    26     6     1   ar
    27    18    19    1
    28    21    23    1
    29    22    24    1
    30    22    25    1
@<TRIPOS>MOLECULE
*****
 29 30 0 0 0
SMALL
GASTEIGER

@<TRIPOS>ATOM
      1 C          64.7060   90.7085   13.6692 C.ar    1  UNL1       -0.0185
      2 C          65.8578   91.5556   14.1227 C.ar    1  UNL1       -0.0041
      3 C          66.3118   92.7145   13.2855 C.ar    1  UNL1        0.0057
      4 C          65.6141   93.0262   11.9949 C.ar    1  UNL1        0.0696
      5 C          64.4623   92.1791   11.5414 C.ar    1  UNL1        0.0095
      6 C          64.0083   91.0202   12.3786 C.ar    1  UNL1        0.0677
      7 C          63.0645   84.6706   16.5152 C.3     1  UNL1        0.0948
      8 C          62.8900   86.0730   17.0180 C.2     1  UNL1        0.2261
      9 O          62.2615   86.3165   18.3580 O.2     1  UNL1       -0.2749
     10 N          63.3440   87.2319   16.1808 N.am    1  UNL1       -0.2795
     11 C          63.9725   86.9884   14.8408 C.3     1  UNL1        0.0937
     12 C          64.4265   88.1472   14.0036 C.3     1  UNL1        0.0259
     13 C          64.2520   89.5496   14.5064 C.3     1  UNL1        0.0257
     14 C          63.6235   89.7931   15.8464 C.3     1  UNL1        0.0259
     15 C          63.1695   88.6342   16.6836 C.3     1  UNL1        0.0937
     16 C          66.0681   94.1851   11.1577 C.2     1  UNL1        0.3078
     17 O          66.1944   95.5486   11.7698 O.2     1  UNL1       -0.2516
     18 N          66.3958   93.9804    9.7083 N.am    1  UNL1       -0.1708
     19 H          66.3129   93.0855    9.3065 H       1  UNL1        0.2545
     20 C          66.8498   95.1393    8.8711 C.2     1  UNL1        0.3751
     21 N          67.9524   96.0311    9.3598 N.pl3   1  UNL1       -0.1313
     22 N          66.2012   95.4063    7.5452 N.pl3   1  UNL1       -0.2906
     23 H          68.3781   95.8559   10.2300 H       1  UNL1        0.3060
     24 H          65.4775   94.8209    7.2244 H       1  UNL1        0.2545
     25 H          66.4991   96.1669    6.9957 H       1  UNL1        0.2545
     26 C          62.8564   90.1730   11.9250 C.3     1  UNL1        0.4183
     27 F          61.7047   89.3259   11.4714 F       1  UNL1       -0.1659
     28 F          62.1289   90.4793   13.2005 F       1  UNL1       -0.1659
     29 F          63.5840   89.8668   10.6495 F       1  UNL1       -0.1659
@<TRIPOS>BOND
     1     7     8    1
     2     8     9    2
     3     8    10   am
     4    10    11    1
     5    11    12    1
     6    12    13    1
     7    13     1    1
     8     1     2   ar
     9     2     3   ar
    10     3     4   ar
    11     4    16    1
    12    16    17    2
    13    16    18   am
    14    18    20    1
    15    20    21    2
    16    20    22    1
    17     4     5   ar
    18     5     6   ar
    19     6    26    1
    20    26    27    1
    21    26    28    1
    22    26    29    1
    23    13    14    1
    24    14    15    1
    25    15    10    1
    26     6     1   ar
    27    18    19    1
    28    21    23    1
    29    22    24    1
    30    22    25    1
@<TRIPOS>MOLECULE
*****
 29 30 0 0 0
SMALL
GASTEIGER

@<TRIPOS>ATOM
      1 C          63.5106   86.4226   13.3521 C.ar    1  UNL1       -0.0185
      2 C          63.1437   87.3908   12.2668 C.ar    1  UNL1       -0.0041
      3 C          63.4226   88.8543   12.4416 C.ar    1  UNL1        0.0057
      4 C          64.0682   89.3495   13.7017 C.ar    1  UNL1        0.0696
      5 C          64.4351   88.3812   14.7870 C.ar    1  UNL1        0.0095
      6 C          64.1563   86.9178   14.6121 C.ar    1  UNL1        0.0677
      7 C          61.6981   79.8032   13.7380 C.3     1  UNL1        0.0948
      8 C          62.3953   80.5688   12.6528 C.2     1  UNL1        0.2261
      9 O          62.8137   79.8708   11.3927 O.2     1  UNL1       -0.2749
     10 N          62.6742   82.0322   12.8276 N.am    1  UNL1       -0.2795
     11 C          62.2558   82.7301   14.0877 C.3     1  UNL1        0.0937
     12 C          62.5346   84.1936   14.2625 C.3     1  UNL1        0.0259
     13 C          63.2318   84.9591   13.1772 C.3     1  UNL1        0.0257
     14 C          63.6502   84.2612   11.9172 C.3     1  UNL1        0.0259
     15 C          63.3714   82.7977   11.7424 C.3     1  UNL1        0.0937
     16 C          64.3471   90.8129   13.8765 C.2     1  UNL1        0.3078
     17 O          63.5291   91.6226   14.8385 O.2     1  UNL1       -0.2516
     18 N          65.4438   91.4667   13.0894 N.am    1  UNL1       -0.1708
     19 H          65.9807   90.9353   12.4580 H       1  UNL1        0.2545
     20 C          65.7226   92.9302   13.2642 C.2     1  UNL1        0.3751
     21 N          65.9688   93.4883   14.6345 N.pl3   1  UNL1       -0.1313
     22 N          65.7553   93.8355   12.0686 N.pl3   1  UNL1       -0.2906
     23 H          65.9473   92.8942   15.4192 H       1  UNL1        0.3060
     24 H          65.5937   93.4692   11.1692 H       1  UNL1        0.2545
     25 H          65.9383   94.7960   12.1833 H       1  UNL1        0.2545
     26 C          64.5232   85.9495   15.6975 C.3     1  UNL1        0.4183
     27 F          64.8900   84.9813   16.7828 F       1  UNL1       -0.1659
     28 F          65.7471   85.5504   14.9277 F       1  UNL1       -0.1659
     29 F          63.2992   86.3486   16.4672 F       1  UNL1       -0.1659
@<TRIPOS>BOND
     1     7     8    1
     2     8     9    2
     3     8    10   am
     4    10    11    1
     5    11    12    1
     6    12    13    1
     7    13     1    1
     8     1     2   ar
     9     2     3   ar
    10     3     4   ar
    11     4    16    1
    12    16    17    2
    13    16    18   am
    14    18    20    1
    15    20    21    2
    16    20    22    1
    17     4     5   ar
    18     5     6   ar
    19     6    26    1
    20    26    27    1
    21    26    28    1
    22    26    29    1
    23    13    14    1
    24    14    15    1
    25    15    10    1
    26     6     1   ar
    27    18    19    1
    28    21    23    1
    29    22    24    1
    30    22    25    1
@<TRIPOS>MOLECULE
*****
 29 30 0 0 0
SMALL
GASTEIGER

@<TRIPOS>ATOM
      1 C          64.3650   91.2037   12.4750 C.ar    1  UNL1       -0.0185
      2 C          64.1656   91.7404   11.0886 C.ar    1  UNL1       -0.0041
      3 C          63.0524   91.2125   10.2329 C.ar    1  UNL1        0.0057
      4 C          62.1386   90.1480   10.7636 C.ar    1  UNL1        0.0696
      5 C          62.3380   89.6113   12.1500 C.ar    1  UNL1        0.0095
      6 C          63.4512   90.1392   13.0057 C.ar    1  UNL1        0.0677
      7 C          69.1424   94.7794   15.8867 C.3     1  UNL1        0.0948
      8 C          68.8176   93.3151   15.8978 C.2     1  UNL1        0.2261
      9 O          69.6061   92.3786   16.7646 O.2     1  UNL1       -0.2749
     10 N          67.7045   92.7872   15.0421 N.am    1  UNL1       -0.2795
     11 C          66.9161   93.7237   14.1753 C.3     1  UNL1        0.0937
     12 C          65.8029   93.1959   13.3196 C.3     1  UNL1        0.0259
     13 C          65.4781   91.7315   13.3307 C.3     1  UNL1        0.0257
     14 C          66.2665   90.7950   14.1974 C.3     1  UNL1        0.0259
     15 C          67.3797   91.3229   15.0532 C.3     1  UNL1        0.0937
     16 C          61.0255   89.6201    9.9079 C.2     1  UNL1        0.3078
     17 O          59.7596   90.4097    9.7528 O.2     1  UNL1       -0.2516
     18 N          61.1782   88.3027    9.2072 N.am    1  UNL1       -0.1708
     19 H          62.0090   87.7845    9.3089 H       1  UNL1        0.2545
     20 C          60.0650   87.7749    8.3515 C.2     1  UNL1        0.3751
     21 N          59.6980   86.3217    8.4105 N.pl3   1  UNL1       -0.1313
     22 N          59.3188   88.7003    7.4366 N.pl3   1  UNL1       -0.2906
     23 H          60.1878   85.7143    9.0110 H       1  UNL1        0.3060
     24 H          59.5596   89.6541    7.3979 H       1  UNL1        0.2545
     25 H          58.5882   88.3539    6.8750 H       1  UNL1        0.2545
     26 C          63.6505   89.6024   14.3921 C.3     1  UNL1        0.4183
     27 F          63.8499   89.0656   15.7785 F       1  UNL1       -0.1659
     28 F          63.1176   90.8824   14.9644 F       1  UNL1       -0.1659
     29 F          64.1834   88.3224   13.8199 F       1  UNL1       -0.1659
@<TRIPOS>BOND
     1     7     8    1
     2     8     9    2
     3     8    10   am
     4    10    11    1
     5    11    12    1
     6    12    13    1
     7    13     1    1
     8     1     2   ar
     9     2     3   ar
    10     3     4   ar
    11     4    16    1
    12    16    17    2
    13    16    18   am
    14    18    20    1
    15    20    21    2
    16    20    22    1
    17     4     5   ar
    18     5     6   ar
    19     6    26    1
    20    26    27    1
    21    26    28    1
    22    26    29    1
    23    13    14    1
    24    14    15    1
    25    15    10    1
    26     6     1   ar
    27    18    19    1
    28    21    23    1
    29    22    24    1
    30    22    25    1
@<TRIPOS>MOLECULE
*****
 29 30 0 0 0
SMALL
GASTEIGER

@<TRIPOS>ATOM
      1 C          63.0681   89.3015   12.0538 C.ar    1  UNL1       -0.0185
      2 C          63.4288   88.6617   13.3616 C.ar    1  UNL1       -0.0041
      3 C          64.2601   89.4119   14.3597 C.ar    1  UNL1        0.0057
      4 C          64.7307   90.8021   14.0499 C.ar    1  UNL1        0.0696
      5 C          64.3700   91.4419   12.7421 C.ar    1  UNL1        0.0095
      6 C          63.5387   90.6917   11.7441 C.ar    1  UNL1        0.0677
      7 C          60.3897   85.3078    7.1420 C.3     1  UNL1        0.0948
      8 C          59.7428   86.3005    8.0618 C.2     1  UNL1        0.2261
      9 O          58.2647   86.5429    7.9836 O.2     1  UNL1       -0.2749
     10 N          60.5741   87.0508    9.0598 N.am    1  UNL1       -0.2795
     11 C          62.0523   86.8083    9.1380 C.3     1  UNL1        0.0937
     12 C          62.8836   87.5586   10.1360 C.3     1  UNL1        0.0259
     13 C          62.2368   88.5513   11.0558 C.3     1  UNL1        0.0257
     14 C          60.7586   88.7937   10.9776 C.3     1  UNL1        0.0259
     15 C          59.9273   88.0434    9.9796 C.3     1  UNL1        0.0937
     16 C          65.5620   91.5523   15.0479 C.2     1  UNL1        0.3078
     17 O          64.9086   92.1999   16.2326 O.2     1  UNL1       -0.2516
     18 N          67.0468   91.6550   14.8612 N.am    1  UNL1       -0.1708
     19 H          67.4757   91.2300   14.0836 H       1  UNL1        0.2545
     20 C          67.8781   92.4053   15.8592 C.2     1  UNL1        0.3751
     21 N          69.1864   91.8373   16.3237 N.pl3   1  UNL1       -0.1313
     22 N          67.4011   93.7236   16.3927 N.pl3   1  UNL1       -0.2906
     23 H          69.4994   90.9721   15.9735 H       1  UNL1        0.3060
     24 H          66.5424   94.0964   16.0878 H       1  UNL1        0.2545
     25 H          67.9467   94.2160   17.0477 H       1  UNL1        0.2545
     26 C          63.1780   91.3316   10.4362 C.3     1  UNL1        0.4183
     27 F          62.8172   91.9715    9.1284 F       1  UNL1       -0.1659
     28 F          64.6126   91.2582   10.0045 F       1  UNL1       -0.1659
     29 F          61.7433   91.4050   10.8679 F       1  UNL1       -0.1659
@<TRIPOS>BOND
     1     7     8    1
     2     8     9    2
     3     8    10   am
     4    10    11    1
     5    11    12    1
     6    12    13    1
     7    13     1    1
     8     1     2   ar
     9     2     3   ar
    10     3     4   ar
    11     4    16    1
    12    16    17    2
    13    16    18   am
    14    18    20    1
    15    20    21    2
    16    20    22    1
    17     4     5   ar
    18     5     6   ar
    19     6    26    1
    20    26    27    1
    21    26    28    1
    22    26    29    1
    23    13    14    1
    24    14    15    1
    25    15    10    1
    26     6     1   ar
    27    18    19    1
    28    21    23    1
    29    22    24    1
    30    22    25    1
@<TRIPOS>MOLECULE
*****
 29 30 0 0 0
SMALL
GASTEIGER

@<TRIPOS>ATOM
      1 C          64.5446   89.5722   13.9063 C.ar    1  UNL1       -0.0185
      2 C          65.7413   90.1792   14.5766 C.ar    1  UNL1       -0.0041
      3 C          66.1896   91.5611   14.2032 C.ar    1  UNL1        0.0057
      4 C          65.4412   92.3359   13.1594 C.ar    1  UNL1        0.0696
      5 C          64.2445   91.7289   12.4891 C.ar    1  UNL1        0.0095
      6 C          63.7962   90.3471   12.8626 C.ar    1  UNL1        0.0677
      7 C          62.5416   83.0105   14.3340 C.3     1  UNL1        0.0948
      8 C          62.7513   84.0447   15.4000 C.2     1  UNL1        0.2261
      9 O          62.5126   83.6970   16.8395 O.2     1  UNL1       -0.2749
     10 N          63.1996   85.4266   15.0266 N.am    1  UNL1       -0.2795
     11 C          63.4383   85.7743   13.5871 C.3     1  UNL1        0.0937
     12 C          63.8866   87.1561   13.2137 C.3     1  UNL1        0.0259
     13 C          64.0963   88.1903   14.2797 C.3     1  UNL1        0.0257
     14 C          63.8576   87.8426   15.7192 C.3     1  UNL1        0.0259
     15 C          63.4093   86.4608   16.0926 C.3     1  UNL1        0.0937
     16 C          65.8895   93.7178   12.7860 C.2     1  UNL1        0.3078
     17 O          66.5255   94.6039   13.8157 O.2     1  UNL1       -0.2516
     18 N          65.7019   94.2136   11.3828 N.am    1  UNL1       -0.1708
     19 H          65.2845   93.6320   10.7069 H       1  UNL1        0.2545
     20 C          66.1502   95.5954   11.0094 C.2     1  UNL1        0.3751
     21 N          65.7214   96.7719   11.8352 N.pl3   1  UNL1       -0.1313
     22 N          67.0275   95.8008    9.8100 N.pl3   1  UNL1       -0.2906
     23 H          65.1456   96.6371   12.6223 H       1  UNL1        0.3060
     24 H          67.3090   95.0287    9.2680 H       1  UNL1        0.2545
     25 H          67.3218   96.7078    9.5649 H       1  UNL1        0.2545
     26 C          62.5994   89.7401   12.1922 C.3     1  UNL1        0.4183
     27 F          61.4026   89.1331   11.5219 F       1  UNL1       -0.1659
     28 F          63.4011   89.5422   10.9400 F       1  UNL1       -0.1659
     29 F          61.7977   89.9380   13.4444 F       1  UNL1       -0.1659
@<TRIPOS>BOND
     1     7     8    1
     2     8     9    2
     3     8    10   am
     4    10    11    1
     5    11    12    1
     6    12    13    1
     7    13     1    1
     8     1     2   ar
     9     2     3   ar
    10     3     4   ar
    11     4    16    1
    12    16    17    2
    13    16    18   am
    14    18    20    1
    15    20    21    2
    16    20    22    1
    17     4     5   ar
    18     5     6   ar
    19     6    26    1
    20    26    27    1
    21    26    28    1
    22    26    29    1
    23    13    14    1
    24    14    15    1
    25    15    10    1
    26     6     1   ar
    27    18    19    1
    28    21    23    1
    29    22    24    1
    30    22    25    1
@<TRIPOS>MOLECULE
*****
 29 30 0 0 0
SMALL
GASTEIGER

@<TRIPOS>ATOM
      1 C          62.5961   88.3507   11.7828 C.ar    1  UNL1       -0.0185
      2 C          63.5809   87.7605   12.7481 C.ar    1  UNL1       -0.0041
      3 C          64.0475   88.5616   13.9273 C.ar    1  UNL1        0.0057
      4 C          63.5293   89.9528   14.1413 C.ar    1  UNL1        0.0696
      5 C          62.5445   90.5430   13.1760 C.ar    1  UNL1        0.0095
      6 C          62.0779   89.7420   11.9967 C.ar    1  UNL1        0.0677
      7 C          61.7213   84.3859    6.2362 C.3     1  UNL1        0.0948
      8 C          60.7298   85.1466    7.0658 C.2     1  UNL1        0.2261
      9 O          59.2717   85.1062    6.7161 O.2     1  UNL1       -0.2749
     10 N          61.1964   85.9476    8.2450 N.am    1  UNL1       -0.2795
     11 C          62.6545   85.9880    8.5947 C.3     1  UNL1        0.0937
     12 C          63.1211   86.7891    9.7739 C.3     1  UNL1        0.0259
     13 C          62.1295   87.5497   10.6035 C.3     1  UNL1        0.0257
     14 C          60.6715   87.5093   10.2539 C.3     1  UNL1        0.0259
     15 C          60.2049   86.7082    9.0746 C.3     1  UNL1        0.0937
     16 C          63.9958   90.7539   15.3205 C.2     1  UNL1        0.3078
     17 O          63.2961   90.6223   16.6408 O.2     1  UNL1       -0.2516
     18 N          65.1621   91.6865   15.1796 N.am    1  UNL1       -0.1708
     19 H          65.6214   91.7729   14.3131 H       1  UNL1        0.2545
     20 C          65.6287   92.4876   16.3588 C.2     1  UNL1        0.3751
     21 N          64.6395   92.9626   17.3815 N.pl3   1  UNL1       -0.1313
     22 N          67.0845   92.8135   16.5154 N.pl3   1  UNL1       -0.2906
     23 H          63.6841   92.7487   17.2787 H       1  UNL1        0.3060
     24 H          67.7337   92.5017   15.8442 H       1  UNL1        0.2545
     25 H          67.3907   93.3393   17.2894 H       1  UNL1        0.2545
     26 C          61.0931   90.3323   11.0314 C.3     1  UNL1        0.4183
     27 F          60.1084   90.9226   10.0661 F       1  UNL1       -0.1659
     28 F          59.9857   90.0918   12.0141 F       1  UNL1       -0.1659
     29 F          62.2005   90.5728   10.0487 F       1  UNL1       -0.1659
@<TRIPOS>BOND
     1     7     8    1
     2     8     9    2
     3     8    10   am
     4    10    11    1
     5    11    12    1
     6    12    13    1
     7    13     1    1
     8     1     2   ar
     9     2     3   ar
    10     3     4   ar
    11     4    16    1
    12    16    17    2
    13    16    18   am
    14    18    20    1
    15    20    21    2
    16    20    22    1
    17     4     5   ar
    18     5     6   ar
    19     6    26    1
    20    26    27    1
    21    26    28    1
    22    26    29    1
    23    13    14    1
    24    14    15    1
    25    15    10    1
    26     6     1   ar
    27    18    19    1
    28    21    23    1
    29    22    24    1
    30    22    25    1
@<TRIPOS>MOLECULE
*****
 29 30 0 0 0
SMALL
GASTEIGER

@<TRIPOS>ATOM
      1 C          45.3625   75.3930   17.4376 C.ar    1  UNL1       -0.0185
      2 C          44.2637   76.3069   16.9824 C.ar    1  UNL1       -0.0041
      3 C          44.1717   77.7002   17.5304 C.ar    1  UNL1        0.0057
      4 C          45.1785   78.1795   18.5336 C.ar    1  UNL1        0.0696
      5 C          46.2773   77.2656   18.9888 C.ar    1  UNL1        0.0095
      6 C          46.3694   75.8723   18.4408 C.ar    1  UNL1        0.0677
      7 C          45.8711   69.6028   13.7681 C.3     1  UNL1        0.0948
      8 C          45.7306   69.8198   15.2456 C.2     1  UNL1        0.2261
      9 O          45.6821   68.6436   16.1751 O.2     1  UNL1       -0.2749
     10 N          45.6386   71.2131   15.7936 N.am    1  UNL1       -0.2795
     11 C          45.6871   72.3894   14.8641 C.3     1  UNL1        0.0937
     12 C          45.5951   73.7827   15.4121 C.3     1  UNL1        0.0259
     13 C          45.4546   73.9997   16.8896 C.3     1  UNL1        0.0257
     14 C          45.4061   72.8234   17.8191 C.3     1  UNL1        0.0259
     15 C          45.4981   71.4302   17.2711 C.3     1  UNL1        0.0937
     16 C          45.0865   79.5728   19.0816 C.2     1  UNL1        0.3078
     17 O          43.9847   79.9330   20.0337 O.2     1  UNL1       -0.2516
     18 N          46.0962   80.6058   18.6776 N.am    1  UNL1       -0.1708
     19 H          46.8193   80.3694   18.0528 H       1  UNL1        0.2545
     20 C          46.0041   81.9991   19.2256 C.2     1  UNL1        0.3751
     21 N          44.6619   82.6105   19.4987 N.pl3   1  UNL1       -0.1313
     22 N          47.2544   82.7810   19.5005 N.pl3   1  UNL1       -0.2906
     23 H          43.8414   82.0973   19.3183 H       1  UNL1        0.3060
     24 H          48.1354   82.3798   19.3212 H       1  UNL1        0.2545
     25 H          47.1941   83.6955   19.8602 H       1  UNL1        0.2545
     26 C          47.4683   74.9584   18.8961 C.3     1  UNL1        0.4183
     27 F          48.5672   74.0446   19.3513 F       1  UNL1       -0.1659
     28 F          46.6394   74.5502   20.0777 F       1  UNL1       -0.1659
     29 F          48.2972   75.3666   17.7145 F       1  UNL1       -0.1659
@<TRIPOS>BOND
     1     7     8    1
     2     8     9    2
     3     8    10   am
     4    10    11    1
     5    11    12    1
     6    12    13    1
     7    13     1    1
     8     1     2   ar
     9     2     3   ar
    10     3     4   ar
    11     4    16    1
    12    16    17    2
    13    16    18   am
    14    18    20    1
    15    20    21    2
    16    20    22    1
    17     4     5   ar
    18     5     6   ar
    19     6    26    1
    20    26    27    1
    21    26    28    1
    22    26    29    1
    23    13    14    1
    24    14    15    1
    25    15    10    1
    26     6     1   ar
    27    18    19    1
    28    21    23    1
    29    22    24    1
    30    22    25    1
