@<TRIPOS>MOLECULE
*****
 36 41 0 0 0
SMALL
GASTEIGER

@<TRIPOS>ATOM
      1 C          60.2227   88.8575    9.6730 C.3     1  UNL1        0.1095
      2 C          59.4229   89.6083    8.6500 C.3     1  UNL1        0.1598
      3 O          59.3111   89.0806    7.2504 O.3     1  UNL1       -0.3508
      4 C          59.9992   87.8021    6.8737 C.3     1  UNL1        0.1598
      5 C          60.7991   87.0513    7.8966 C.3     1  UNL1        0.1091
      6 N          60.9108   87.5790    9.2964 N.3     1  UNL1       -0.1533
      7 C          60.3345   89.3852   11.0727 C.3     1  UNL1        0.0261
      8 C          59.1253   88.7467   11.6891 C.3     1  UNL1        0.0020
      9 C          60.0127   89.6275   12.5176 C.3     1  UNL1        0.0020
     10 C          61.5825   90.2071   10.9424 C.3     1  UNL1        0.0867
     11 C          62.7314   90.9545   10.9104 C.3     1  UNL1        0.0948
     12 C          63.6548   91.1070   12.0826 C.2     1  UNL1        0.2261
     13 O          63.4951   90.4959   13.4431 O.2     1  UNL1       -0.2749
     14 N          64.8922   91.9456   11.9584 N.am    1  UNL1       -0.2794
     15 C          65.9042   92.1894   13.0384 C.3     1  UNL1        0.0952
     16 C          66.9724   93.0821   12.4799 C.3     1  UNL1        0.0233
     17 C          66.6206   93.3901   11.0546 C.3     1  UNL1        0.0233
     18 C          65.3350   92.6877   10.7323 C.3     1  UNL1        0.0952
     19 C          64.0574   91.8843   10.6940 C.3     1  UNL1        0.1131
     20 N          63.7434   91.1982   11.9904 N.am    1  UNL1       -0.2761
     21 C          62.5059   90.3596   12.1146 C.2     1  UNL1        0.2258
     22 O          62.5030   89.8324   13.5189 O.2     1  UNL1       -0.2749
     23 C          64.6667   91.3508   13.1626 C.3     1  UNL1        0.1131
     24 C          61.4872   85.7728    7.5200 C.3     1  UNL1        0.0189
     25 C          61.4944   84.4732    6.7711 C.3     1  UNL1        0.0015
     26 C          62.6720   84.8579    7.6169 C.3     1  UNL1        0.0015
     27 S          61.7107   86.8282   10.3193 S.O2    1  UNL1        0.0634
     28 O          60.7071   85.9255   10.9737 O.2     1  UNL1       -0.1528
     29 O          62.8377   87.6572    9.7785 O.2     1  UNL1       -0.1528
     30 C          62.5106   86.0774   11.3423 C.ar    1  UNL1        0.1223
     31 C          63.0614   86.7955   12.5384 C.ar    1  UNL1        0.0208
     32 C          63.8614   86.0446   13.5614 C.ar    1  UNL1        0.0128
     33 C          64.1104   84.5756   13.3882 C.ar    1  UNL1        0.0578
     34 CL         64.9102   83.8248   14.4111 Cl      1  UNL1       -0.0822
     35 C          63.5595   83.8574   12.1920 C.ar    1  UNL1        0.0128
     36 C          62.7595   84.6084   11.1691 C.ar    1  UNL1        0.0208
@<TRIPOS>BOND
     1    11    12    1
     2    12    13    2
     3    12    14   am
     4    14    15    1
     5    15    16    1
     6    16    17    1
     7    17    18    1
     8    18    19    1
     9    19    20    1
    10    20    21   am
    11    21    22    2
    12    21    10    1
    13    10     7    1
    14     1     7    1
    15     1     2    1
    16     2     3    1
    17     3     4    1
    18     4     5    1
    19     5    24    1
    20    24    25    1
    21    25    26    1
    22     5     6    1
    23     6    27    1
    24    27    28    2
    25    27    29    2
    26    27    30    1
    27    30    31   ar
    28    31    32   ar
    29    32    33   ar
    30    33    34    1
    31    33    35   ar
    32    35    36   ar
    33     7     8    1
    34     8     9    1
    35    20    23    1
    36    18    14    1
    37     9     7    1
    38    23    15    1
    39     6     1    1
    40    36    30   ar
    41    26    24    1
@<TRIPOS>MOLECULE
*****
 36 41 0 0 0
SMALL
GASTEIGER

@<TRIPOS>ATOM
      1 C          62.8644   90.7159   11.3876 C.3     1  UNL1        0.1095
      2 C          63.0391   91.5932   10.1836 C.3     1  UNL1        0.1598
      3 O          64.2464   92.4757   10.0674 O.3     1  UNL1       -0.3508
      4 C          65.2791   92.4809   11.1554 C.3     1  UNL1        0.1598
      5 C          65.1044   91.6036   12.3594 C.3     1  UNL1        0.1091
      6 N          63.8970   90.7210   12.4756 N.3     1  UNL1       -0.1533
      7 C          61.6570   89.8333   11.5038 C.3     1  UNL1        0.0261
      8 C          60.8644   90.6080   12.5145 C.3     1  UNL1        0.0020
      9 C          60.3200   89.3263   11.9570 C.3     1  UNL1        0.0020
     10 C          62.0303   88.7522   10.5333 C.3     1  UNL1        0.0867
     11 C          62.2500   87.6810    9.7063 C.3     1  UNL1        0.0948
     12 C          61.2310   87.1579    8.7379 C.2     1  UNL1        0.2261
     13 O          59.8470   87.6890    8.5089 O.2     1  UNL1       -0.2749
     14 N          61.5572   85.9788    7.8699 N.am    1  UNL1       -0.2794
     15 C          60.6447   85.3478    6.8604 C.3     1  UNL1        0.0952
     16 C          61.3767   84.2027    6.2256 C.3     1  UNL1        0.0233
     17 C          62.7417   84.1261    6.8427 C.3     1  UNL1        0.0233
     18 C          62.8533   85.2238    7.8589 C.3     1  UNL1        0.0952
     19 C          62.6828   86.3941    8.7973 C.3     1  UNL1        0.1131
     20 N          61.3375   87.0500    8.6969 N.am    1  UNL1       -0.2761
     21 C          61.0112   88.2290    9.5649 C.2     1  UNL1        0.2258
     22 O          59.6092   88.6276    9.2109 O.2     1  UNL1       -0.2749
     23 C          60.3185   86.5268    7.7284 C.3     1  UNL1        0.1131
     24 C          66.1370   91.6088   13.4474 C.3     1  UNL1        0.0189
     25 C          67.5752   91.6201   13.8734 C.3     1  UNL1        0.0015
     26 C          66.4872   91.6064   14.9060 C.3     1  UNL1        0.0015
     27 S          63.7223   89.8438   13.6796 S.O2    1  UNL1        0.0634
     28 O          64.0588   88.4701   13.1797 O.2     1  UNL1       -0.1528
     29 O          63.3562   91.1387   14.3423 O.2     1  UNL1       -0.1528
     30 C          63.5476   88.9665   14.8838 C.ar    1  UNL1        0.1223
     31 C          63.0115   89.5431   16.1604 C.ar    1  UNL1        0.0208
     32 C          62.8368   88.6657   17.3645 C.ar    1  UNL1        0.0128
     33 C          63.1983   87.2118   17.2919 C.ar    1  UNL1        0.0578
     34 CL         63.0236   86.3345   18.4960 Cl      1  UNL1       -0.0822
     35 C          63.7345   86.6351   16.0152 C.ar    1  UNL1        0.0128
     36 C          63.9092   87.5125   14.8111 C.ar    1  UNL1        0.0208
@<TRIPOS>BOND
     1    11    12    1
     2    12    13    2
     3    12    14   am
     4    14    15    1
     5    15    16    1
     6    16    17    1
     7    17    18    1
     8    18    19    1
     9    19    20    1
    10    20    21   am
    11    21    22    2
    12    21    10    1
    13    10     7    1
    14     1     7    1
    15     1     2    1
    16     2     3    1
    17     3     4    1
    18     4     5    1
    19     5    24    1
    20    24    25    1
    21    25    26    1
    22     5     6    1
    23     6    27    1
    24    27    28    2
    25    27    29    2
    26    27    30    1
    27    30    31   ar
    28    31    32   ar
    29    32    33   ar
    30    33    34    1
    31    33    35   ar
    32    35    36   ar
    33     7     8    1
    34     8     9    1
    35    20    23    1
    36    18    14    1
    37     9     7    1
    38    23    15    1
    39     6     1    1
    40    36    30   ar
    41    26    24    1
@<TRIPOS>MOLECULE
*****
 36 41 0 0 0
SMALL
GASTEIGER

@<TRIPOS>ATOM
      1 C          62.8302   90.4518   11.4455 C.3     1  UNL1        0.1095
      2 C          63.0089   91.2727   10.2029 C.3     1  UNL1        0.1598
      3 O          64.1699   92.2156   10.0875 O.3     1  UNL1       -0.3508
      4 C          65.1520   92.3375   11.2147 C.3     1  UNL1        0.1598
      5 C          64.9732   91.5166   12.4573 C.3     1  UNL1        0.1091
      6 N          63.8123   90.5737   12.5727 N.3     1  UNL1       -0.1533
      7 C          61.6692   89.5089   11.5610 C.3     1  UNL1        0.0261
      8 C          60.5328   90.4855   11.4922 C.3     1  UNL1        0.0020
      9 C          60.2536   89.0190   11.6386 C.3     1  UNL1        0.0020
     10 C          62.4025   88.2049   11.6699 C.3     1  UNL1        0.0867
     11 C          62.7261   86.8781   11.7891 C.3     1  UNL1        0.0948
     12 C          62.7205   85.9161   10.6383 C.2     1  UNL1        0.2261
     13 O          62.3747   86.2186    9.2104 O.2     1  UNL1       -0.2749
     14 N          63.0889   84.4790   10.8601 N.am    1  UNL1       -0.2794
     15 C          63.1281   83.4069    9.8118 C.3     1  UNL1        0.0952
     16 C          63.5463   82.1271   10.4730 C.3     1  UNL1        0.0233
     17 C          63.7656   82.4083   11.9300 C.3     1  UNL1        0.0233
     18 C          63.4829   83.8618   12.1693 C.3     1  UNL1        0.0952
     19 C          63.1395   85.3309   12.1136 C.3     1  UNL1        0.1131
     20 N          62.7653   85.8059   10.7408 N.am    1  UNL1       -0.2761
     21 C          62.3968   87.2429   10.5189 C.2     1  UNL1        0.2258
     22 O          62.0845   87.3687    9.0572 O.2     1  UNL1       -0.2749
     23 C          62.7597   84.8439    9.5900 C.3     1  UNL1        0.1131
     24 C          65.9553   91.6385   13.5845 C.3     1  UNL1        0.0189
     25 C          66.2431   91.8856   15.0357 C.3     1  UNL1        0.0015
     26 C          67.3687   91.6023   14.0856 C.3     1  UNL1        0.0015
     27 S          63.6335   89.7528   13.8153 S.O2    1  UNL1        0.0634
     28 O          64.4347   88.5128   13.5496 O.2     1  UNL1       -0.1528
     29 O          62.7914   90.9181   14.2433 O.2     1  UNL1       -0.1528
     30 C          63.4547   88.9319   15.0580 C.ar    1  UNL1        0.1223
     31 C          63.7465   87.4608   15.0335 C.ar    1  UNL1        0.0208
     32 C          63.5676   86.6399   16.2762 C.ar    1  UNL1        0.0128
     33 C          63.0971   87.2902   17.5434 C.ar    1  UNL1        0.0578
     34 CL         62.9183   86.4693   18.7860 Cl      1  UNL1       -0.0822
     35 C          62.8053   88.7614   17.5679 C.ar    1  UNL1        0.0128
     36 C          62.9841   89.5822   16.3251 C.ar    1  UNL1        0.0208
@<TRIPOS>BOND
     1    11    12    1
     2    12    13    2
     3    12    14   am
     4    14    15    1
     5    15    16    1
     6    16    17    1
     7    17    18    1
     8    18    19    1
     9    19    20    1
    10    20    21   am
    11    21    22    2
    12    21    10    1
    13    10     7    1
    14     1     7    1
    15     1     2    1
    16     2     3    1
    17     3     4    1
    18     4     5    1
    19     5    24    1
    20    24    25    1
    21    25    26    1
    22     5     6    1
    23     6    27    1
    24    27    28    2
    25    27    29    2
    26    27    30    1
    27    30    31   ar
    28    31    32   ar
    29    32    33   ar
    30    33    34    1
    31    33    35   ar
    32    35    36   ar
    33     7     8    1
    34     8     9    1
    35    20    23    1
    36    18    14    1
    37     9     7    1
    38    23    15    1
    39     6     1    1
    40    36    30   ar
    41    26    24    1
@<TRIPOS>MOLECULE
*****
 36 41 0 0 0
SMALL
GASTEIGER

@<TRIPOS>ATOM
      1 C          63.3689   88.2250   13.3829 C.3     1  UNL1        0.1095
      2 C          64.2027   87.9247   14.5931 C.3     1  UNL1        0.1598
      3 O          64.6767   86.5247   14.8487 O.3     1  UNL1       -0.3508
      4 C          64.3169   85.4250   13.8941 C.3     1  UNL1        0.1598
      5 C          63.4831   85.7253   12.6839 C.3     1  UNL1        0.1091
      6 N          63.0091   87.1254   12.4283 N.3     1  UNL1       -0.1533
      7 C          62.8949   89.6251   13.1273 C.3     1  UNL1        0.0261
      8 C          61.4367   89.3669   12.8889 C.3     1  UNL1        0.0020
      9 C          61.9716   90.7665   12.8197 C.3     1  UNL1        0.0020
     10 C          64.1885   90.3695   13.2768 C.3     1  UNL1        0.0867
     11 C          65.4053   90.9278   13.5723 C.3     1  UNL1        0.0948
     12 C          65.6728   91.7246   14.8147 C.2     1  UNL1        0.2261
     13 O          64.6994   92.0411   15.9112 O.2     1  UNL1       -0.2749
     14 N          67.0366   92.2998   15.0576 N.am    1  UNL1       -0.2794
     15 C          67.4511   93.1136   16.2475 C.3     1  UNL1        0.0952
     16 C          68.8961   93.4791   16.0787 C.3     1  UNL1        0.0233
     17 C          69.3747   92.8911   14.7843 C.3     1  UNL1        0.0233
     18 C          68.2254   92.1623   14.1533 C.3     1  UNL1        0.0952
     19 C          66.9162   91.5200   13.7627 C.3     1  UNL1        0.1131
     20 N          65.8198   91.7416   14.7622 N.am    1  UNL1       -0.2761
     21 C          64.4560   91.1663   14.5193 C.2     1  UNL1        0.2258
     22 O          63.6201   91.5730   15.6965 O.2     1  UNL1       -0.2749
     23 C          66.0873   92.5384   16.0046 C.3     1  UNL1        0.1131
     24 C          63.1233   84.6257   11.7293 C.3     1  UNL1        0.0189
     25 C          62.4588   83.3092   11.4550 C.3     1  UNL1        0.0015
     26 C          63.1646   84.0377   10.3499 C.3     1  UNL1        0.0015
     27 S          62.1753   87.4257   11.2181 S.O2    1  UNL1        0.0634
     28 O          63.0542   88.3076   10.3816 O.2     1  UNL1       -0.1528
     29 O          61.1715   86.5612   11.9218 O.2     1  UNL1       -0.1528
     30 C          61.3415   87.7259   10.0079 C.ar    1  UNL1        0.1223
     31 C          61.0427   89.1483    9.6371 C.ar    1  UNL1        0.0208
     32 C          60.2088   89.4485    8.4268 C.ar    1  UNL1        0.0128
     33 C          59.6738   88.3264    7.5874 C.ar    1  UNL1        0.0578
     34 CL         58.8401   88.6266    6.3772 Cl      1  UNL1       -0.0822
     35 C          59.9727   86.9040    7.9582 C.ar    1  UNL1        0.0128
     36 C          60.8066   86.6038    9.1685 C.ar    1  UNL1        0.0208
@<TRIPOS>BOND
     1    11    12    1
     2    12    13    2
     3    12    14   am
     4    14    15    1
     5    15    16    1
     6    16    17    1
     7    17    18    1
     8    18    19    1
     9    19    20    1
    10    20    21   am
    11    21    22    2
    12    21    10    1
    13    10     7    1
    14     1     7    1
    15     1     2    1
    16     2     3    1
    17     3     4    1
    18     4     5    1
    19     5    24    1
    20    24    25    1
    21    25    26    1
    22     5     6    1
    23     6    27    1
    24    27    28    2
    25    27    29    2
    26    27    30    1
    27    30    31   ar
    28    31    32   ar
    29    32    33   ar
    30    33    34    1
    31    33    35   ar
    32    35    36   ar
    33     7     8    1
    34     8     9    1
    35    20    23    1
    36    18    14    1
    37     9     7    1
    38    23    15    1
    39     6     1    1
    40    36    30   ar
    41    26    24    1
@<TRIPOS>MOLECULE
*****
 36 41 0 0 0
SMALL
GASTEIGER

@<TRIPOS>ATOM
      1 C          63.4916   88.4013   13.2942 C.3     1  UNL1        0.1095
      2 C          64.3688   88.2208   14.4975 C.3     1  UNL1        0.1598
      3 O          64.8370   86.8496   14.8855 O.3     1  UNL1       -0.3508
      4 C          64.4280   85.6588   14.0701 C.3     1  UNL1        0.1598
      5 C          63.5509   85.8393   12.8668 C.3     1  UNL1        0.1091
      6 N          63.0827   87.2106   12.4788 N.3     1  UNL1       -0.1533
      7 C          63.0234   89.7726   12.9062 C.3     1  UNL1        0.0261
      8 C          61.5772   89.6726   13.2913 C.3     1  UNL1        0.0020
      9 C          62.1094   90.9437   12.6988 C.3     1  UNL1        0.0020
     10 C          64.3071   90.3488   12.3864 C.3     1  UNL1        0.0867
     11 C          64.7822   91.4262   11.6843 C.3     1  UNL1        0.0948
     12 C          65.3749   92.6425   12.3319 C.2     1  UNL1        0.2261
     13 O          65.5476   92.8894   13.8014 O.2     1  UNL1       -0.2749
     14 N          65.8709   93.7768   11.4849 N.am    1  UNL1       -0.2794
     15 C          66.4844   95.0499   11.9876 C.3     1  UNL1        0.0952
     16 C          66.8332   95.8970   10.7999 C.3     1  UNL1        0.0233
     17 C          66.4351   95.1475    9.5630 C.3     1  UNL1        0.0233
     18 C          65.8404   93.8371    9.9864 C.3     1  UNL1        0.0952
     19 C          65.2990   92.6173   10.6924 C.3     1  UNL1        0.1131
     20 N          65.3958   92.6994   12.1871 N.am    1  UNL1       -0.2761
     21 C          64.8998   91.5651   13.0341 C.2     1  UNL1        0.2258
     22 O          65.1457   91.9730   14.4564 O.2     1  UNL1       -0.2749
     23 C          65.9885   93.9156   12.8346 C.3     1  UNL1        0.1131
     24 C          63.1419   84.6486   12.0513 C.3     1  UNL1        0.0189
     25 C          62.4419   83.3264   11.9435 C.3     1  UNL1        0.0015
     26 C          63.1337   83.9085   10.7466 C.3     1  UNL1        0.0015
     27 S          62.2056   87.3911   11.2755 S.O2    1  UNL1        0.0634
     28 O          63.0660   88.1507   10.3098 O.2     1  UNL1       -0.1528
     29 O          61.2152   86.6366   12.1121 O.2     1  UNL1       -0.1528
     30 C          61.3284   87.5715   10.0721 C.ar    1  UNL1        0.1223
     31 C          60.8800   86.3761    9.2848 C.ar    1  UNL1        0.0208
     32 C          60.0028   86.5566    8.0814 C.ar    1  UNL1        0.0128
     33 C          59.5740   87.9325    7.6654 C.ar    1  UNL1        0.0578
     34 CL         58.6969   88.1130    6.4621 Cl      1  UNL1       -0.0822
     35 C          60.0225   89.1280    8.4528 C.ar    1  UNL1        0.0128
     36 C          60.8997   88.9474    9.6561 C.ar    1  UNL1        0.0208
@<TRIPOS>BOND
     1    11    12    1
     2    12    13    2
     3    12    14   am
     4    14    15    1
     5    15    16    1
     6    16    17    1
     7    17    18    1
     8    18    19    1
     9    19    20    1
    10    20    21   am
    11    21    22    2
    12    21    10    1
    13    10     7    1
    14     1     7    1
    15     1     2    1
    16     2     3    1
    17     3     4    1
    18     4     5    1
    19     5    24    1
    20    24    25    1
    21    25    26    1
    22     5     6    1
    23     6    27    1
    24    27    28    2
    25    27    29    2
    26    27    30    1
    27    30    31   ar
    28    31    32   ar
    29    32    33   ar
    30    33    34    1
    31    33    35   ar
    32    35    36   ar
    33     7     8    1
    34     8     9    1
    35    20    23    1
    36    18    14    1
    37     9     7    1
    38    23    15    1
    39     6     1    1
    40    36    30   ar
    41    26    24    1
@<TRIPOS>MOLECULE
*****
 36 41 0 0 0
SMALL
GASTEIGER

@<TRIPOS>ATOM
      1 C          60.0187   93.8429    0.3406 C.3     1  UNL1        0.1095
      2 C          59.3972   93.2517    1.5711 C.3     1  UNL1        0.1598
      3 O          60.2687   92.7161    2.6682 O.3     1  UNL1       -0.3508
      4 C          61.7617   92.7718    2.5347 C.3     1  UNL1        0.1598
      5 C          62.3832   93.3630    1.3042 C.3     1  UNL1        0.1091
      6 N          61.5116   93.8986    0.2071 N.3     1  UNL1       -0.1533
      7 C          59.1471   94.3786   -0.7565 C.3     1  UNL1        0.0261
      8 C          58.8932   95.7620   -0.2356 C.3     1  UNL1        0.0020
      9 C          58.2925   95.3301   -1.5403 C.3     1  UNL1        0.0020
     10 C          59.0982   93.1811   -1.6585 C.3     1  UNL1        0.0867
     11 C          58.6269   92.9453   -2.9242 C.3     1  UNL1        0.0948
     12 C          57.3160   92.2744   -3.2097 C.2     1  UNL1        0.2261
     13 O          56.3265   91.7621   -2.2055 O.2     1  UNL1       -0.2749
     14 N          56.8782   92.0565   -4.6277 N.am    1  UNL1       -0.2794
     15 C          55.6008   91.4034   -5.0656 C.3     1  UNL1        0.0952
     16 C          55.5740   91.3967   -6.5654 C.3     1  UNL1        0.0233
     17 C          56.8348   92.0457   -7.0544 C.3     1  UNL1        0.0233
     18 C          57.6408   92.4534   -5.8568 C.3     1  UNL1        0.0952
     19 C          58.2225   92.7453   -4.4946 C.3     1  UNL1        0.1131
     20 N          57.3495   92.2922   -3.3620 N.am    1  UNL1       -0.2761
     21 C          57.7873   92.5101   -1.9440 C.2     1  UNL1        0.2258
     22 O          56.6960   91.9463   -1.0831 O.2     1  UNL1       -0.2749
     23 C          56.0387   91.6213   -3.6476 C.3     1  UNL1        0.1131
     24 C          63.8762   93.4187    1.1707 C.3     1  UNL1        0.0189
     25 C          65.1600   92.8173    0.6805 C.3     1  UNL1        0.0015
     26 C          65.1784   94.1168    1.4297 C.3     1  UNL1        0.0015
     27 S          62.1331   94.4899   -1.0234 S.O2    1  UNL1        0.0634
     28 O          62.2476   93.3286   -1.9660 O.2     1  UNL1       -0.1528
     29 O          62.0940   95.7521   -0.2138 O.2     1  UNL1       -0.1528
     30 C          62.7546   95.0812   -2.2540 C.ar    1  UNL1        0.1223
     31 C          64.2446   95.2276   -2.3453 C.ar    1  UNL1        0.0208
     32 C          64.8660   95.8190   -3.5759 C.ar    1  UNL1        0.0128
     33 C          63.9975   96.2638   -4.7150 C.ar    1  UNL1        0.0578
     34 CL         64.6189   96.8550   -5.9455 Cl      1  UNL1       -0.0822
     35 C          62.5074   96.1173   -4.6237 C.ar    1  UNL1        0.0128
     36 C          61.8860   95.5260   -3.3931 C.ar    1  UNL1        0.0208
@<TRIPOS>BOND
     1    11    12    1
     2    12    13    2
     3    12    14   am
     4    14    15    1
     5    15    16    1
     6    16    17    1
     7    17    18    1
     8    18    19    1
     9    19    20    1
    10    20    21   am
    11    21    22    2
    12    21    10    1
    13    10     7    1
    14     1     7    1
    15     1     2    1
    16     2     3    1
    17     3     4    1
    18     4     5    1
    19     5    24    1
    20    24    25    1
    21    25    26    1
    22     5     6    1
    23     6    27    1
    24    27    28    2
    25    27    29    2
    26    27    30    1
    27    30    31   ar
    28    31    32   ar
    29    32    33   ar
    30    33    34    1
    31    33    35   ar
    32    35    36   ar
    33     7     8    1
    34     8     9    1
    35    20    23    1
    36    18    14    1
    37     9     7    1
    38    23    15    1
    39     6     1    1
    40    36    30   ar
    41    26    24    1
@<TRIPOS>MOLECULE
*****
 36 41 0 0 0
SMALL
GASTEIGER

@<TRIPOS>ATOM
      1 C          60.7707   95.0494   -1.2850 C.3     1  UNL1        0.1095
      2 C          61.1443   95.8578   -2.4920 C.3     1  UNL1        0.1598
      3 O          62.5791   96.2205   -2.7370 O.3     1  UNL1       -0.3508
      4 C          63.6402   95.7746   -1.7750 C.3     1  UNL1        0.1598
      5 C          63.2665   94.9662   -0.5681 C.3     1  UNL1        0.1091
      6 N          61.8317   94.6035   -0.3230 N.3     1  UNL1       -0.1533
      7 C          59.3359   94.6868   -1.0400 C.3     1  UNL1        0.0261
      8 C          58.8700   95.9274   -0.3374 C.3     1  UNL1        0.0020
      9 C          57.9124   94.7988   -0.5805 C.3     1  UNL1        0.0020
     10 C          59.3035   93.3201   -1.6574 C.3     1  UNL1        0.0867
     11 C          58.7999   93.1174   -2.9163 C.3     1  UNL1        0.0948
     12 C          57.4853   92.4473   -3.1860 C.2     1  UNL1        0.2261
     13 O          56.5254   91.9011   -2.1710 O.2     1  UNL1       -0.2749
     14 N          57.0110   92.2670   -4.5976 N.am    1  UNL1       -0.2794
     15 C          55.7257   91.6192   -5.0199 C.3     1  UNL1        0.0952
     16 C          55.6590   91.6547   -6.5180 C.3     1  UNL1        0.0233
     17 C          56.9031   92.3245   -7.0216 C.3     1  UNL1        0.0233
     18 C          57.7387   92.7029   -5.8347 C.3     1  UNL1        0.0952
     19 C          58.3549   92.9596   -4.4806 C.3     1  UNL1        0.1131
     20 N          57.5146   92.4696   -3.3386 N.am    1  UNL1       -0.2761
     21 C          57.9889   92.6499   -1.9271 C.2     1  UNL1        0.2258
     22 O          56.9237   92.0557   -1.0540 O.2     1  UNL1       -0.2749
     23 C          56.2000   91.7994   -3.6083 C.3     1  UNL1        0.1131
     24 C          64.3275   94.5203    0.3939 C.3     1  UNL1        0.0189
     25 C          65.1383   94.7548    1.6339 C.3     1  UNL1        0.0015
     26 C          65.3545   93.5134    0.8200 C.3     1  UNL1        0.0015
     27 S          61.4581   93.7951    0.8839 S.O2    1  UNL1        0.0634
     28 O          61.5368   92.3748    0.4080 O.2     1  UNL1       -0.1528
     29 O          61.3306   95.1465    1.5224 O.2     1  UNL1       -0.1528
     30 C          61.0844   92.9867    2.0909 C.ar    1  UNL1        0.1223
     31 C          59.6809   93.0311    2.6182 C.ar    1  UNL1        0.0208
     32 C          59.3073   92.2226    3.8253 C.ar    1  UNL1        0.0128
     33 C          60.3372   91.3698    4.5050 C.ar    1  UNL1        0.0578
     34 CL         59.9636   90.5614    5.7119 Cl      1  UNL1       -0.0822
     35 C          61.7408   91.3254    3.9776 C.ar    1  UNL1        0.0128
     36 C          62.1144   92.1339    2.7705 C.ar    1  UNL1        0.0208
@<TRIPOS>BOND
     1    11    12    1
     2    12    13    2
     3    12    14   am
     4    14    15    1
     5    15    16    1
     6    16    17    1
     7    17    18    1
     8    18    19    1
     9    19    20    1
    10    20    21   am
    11    21    22    2
    12    21    10    1
    13    10     7    1
    14     1     7    1
    15     1     2    1
    16     2     3    1
    17     3     4    1
    18     4     5    1
    19     5    24    1
    20    24    25    1
    21    25    26    1
    22     5     6    1
    23     6    27    1
    24    27    28    2
    25    27    29    2
    26    27    30    1
    27    30    31   ar
    28    31    32   ar
    29    32    33   ar
    30    33    34    1
    31    33    35   ar
    32    35    36   ar
    33     7     8    1
    34     8     9    1
    35    20    23    1
    36    18    14    1
    37     9     7    1
    38    23    15    1
    39     6     1    1
    40    36    30   ar
    41    26    24    1
@<TRIPOS>MOLECULE
*****
 36 41 0 0 0
SMALL
GASTEIGER

@<TRIPOS>ATOM
      1 C          59.4770   95.3753   -2.8599 C.3     1  UNL1        0.1095
      2 C          58.9444   96.1509   -4.0281 C.3     1  UNL1        0.1598
      3 O          59.8925   96.7936   -4.9967 O.3     1  UNL1       -0.3508
      4 C          61.3732   96.6606   -4.7970 C.3     1  UNL1        0.1598
      5 C          61.9058   95.8850   -3.6289 C.3     1  UNL1        0.1091
      6 N          60.9577   95.2423   -2.6602 N.3     1  UNL1       -0.1533
      7 C          58.5289   94.7326   -1.8913 C.3     1  UNL1        0.0261
      8 C          58.0839   95.9408   -1.1219 C.3     1  UNL1        0.0020
      9 C          57.5407   94.5871   -0.7723 C.3     1  UNL1        0.0020
     10 C          58.6447   93.3012   -2.3244 C.3     1  UNL1        0.0867
     11 C          58.1590   92.9468   -3.5565 C.3     1  UNL1        0.0948
     12 C          56.9227   92.1209   -3.7547 C.2     1  UNL1        0.2261
     13 O          56.0325   91.5575   -2.6869 O.2     1  UNL1       -0.2749
     14 N          56.4629   91.7797   -5.1411 N.am    1  UNL1       -0.2794
     15 C          55.2524   90.9670   -5.4937 C.3     1  UNL1        0.0952
     16 C          55.1743   90.8764   -6.9889 C.3     1  UNL1        0.0233
     17 C          56.3364   91.6331   -7.5605 C.3     1  UNL1        0.0233
     18 C          57.1328   92.1914   -6.4185 C.3     1  UNL1        0.0952
     19 C          57.7251   92.6189   -5.0973 C.3     1  UNL1        0.1131
     20 N          56.9485   92.1341   -3.9090 N.am    1  UNL1       -0.2761
     21 C          57.4083   92.4752   -2.5226 C.2     1  UNL1        0.2258
     22 O          56.4179   91.8418   -1.5910 O.2     1  UNL1       -0.2749
     23 C          55.7122   91.3081   -4.1072 C.3     1  UNL1        0.1131
     24 C          63.3865   95.7520   -3.4292 C.3     1  UNL1        0.0189
     25 C          64.6904   96.3246   -2.9581 C.3     1  UNL1        0.0015
     26 C          64.6472   94.9489   -3.5544 C.3     1  UNL1        0.0015
     27 S          61.4903   94.4667   -1.4921 S.O2    1  UNL1        0.0634
     28 O          61.6627   93.0763   -2.0278 O.2     1  UNL1       -0.1528
     29 O          61.3809   95.7916   -0.7972 O.2     1  UNL1       -0.1528
     30 C          62.0230   93.6911   -0.3238 C.ar    1  UNL1        0.1223
     31 C          61.1501   92.6891    0.3719 C.ar    1  UNL1        0.0208
     32 C          61.6829   91.9135    1.5402 C.ar    1  UNL1        0.0128
     33 C          63.0884   92.1400    2.0127 C.ar    1  UNL1        0.0578
     34 CL         63.6210   91.3644    3.1809 Cl      1  UNL1       -0.0822
     35 C          63.9612   93.1420    1.3169 C.ar    1  UNL1        0.0128
     36 C          63.4285   93.9176    0.1486 C.ar    1  UNL1        0.0208
@<TRIPOS>BOND
     1    11    12    1
     2    12    13    2
     3    12    14   am
     4    14    15    1
     5    15    16    1
     6    16    17    1
     7    17    18    1
     8    18    19    1
     9    19    20    1
    10    20    21   am
    11    21    22    2
    12    21    10    1
    13    10     7    1
    14     1     7    1
    15     1     2    1
    16     2     3    1
    17     3     4    1
    18     4     5    1
    19     5    24    1
    20    24    25    1
    21    25    26    1
    22     5     6    1
    23     6    27    1
    24    27    28    2
    25    27    29    2
    26    27    30    1
    27    30    31   ar
    28    31    32   ar
    29    32    33   ar
    30    33    34    1
    31    33    35   ar
    32    35    36   ar
    33     7     8    1
    34     8     9    1
    35    20    23    1
    36    18    14    1
    37     9     7    1
    38    23    15    1
    39     6     1    1
    40    36    30   ar
    41    26    24    1
@<TRIPOS>MOLECULE
*****
 36 41 0 0 0
SMALL
GASTEIGER

@<TRIPOS>ATOM
      1 C          63.9535   90.7622   14.3631 C.3     1  UNL1        0.1095
      2 C          63.2251   90.4599   15.6390 C.3     1  UNL1        0.1598
      3 O          63.6990   91.0544   16.9320 O.3     1  UNL1       -0.3508
      4 C          64.9013   91.9512   16.9491 C.3     1  UNL1        0.1598
      5 C          65.6297   92.2535   15.6732 C.3     1  UNL1        0.1091
      6 N          65.1558   91.6590   14.3801 N.3     1  UNL1       -0.1533
      7 C          63.4796   90.1676   13.0699 C.3     1  UNL1        0.0261
      8 C          62.7936   91.3596   12.4712 C.3     1  UNL1        0.0020
      9 C          62.8246   90.0588   11.7249 C.3     1  UNL1        0.0020
     10 C          64.0011   88.7692   13.2196 C.3     1  UNL1        0.0867
     11 C          64.0734   87.4858   13.6964 C.3     1  UNL1        0.0948
     12 C          63.3172   86.3356   13.1005 C.2     1  UNL1        0.2261
     13 O          62.3853   86.3794   11.9260 O.2     1  UNL1       -0.2749
     14 N          63.4562   84.9622   13.6874 N.am    1  UNL1       -0.2794
     15 C          62.7665   83.7219   13.2016 C.3     1  UNL1        0.0952
     16 C          63.1933   82.5810   14.0771 C.3     1  UNL1        0.0233
     17 C          64.1467   83.1163   15.1040 C.3     1  UNL1        0.0233
     18 C          64.3092   84.5879   14.8631 C.3     1  UNL1        0.0952
     19 C          64.2790   86.0224   14.3934 C.3     1  UNL1        0.1131
     20 N          63.3838   86.2455   13.2106 N.am    1  UNL1       -0.2761
     21 C          63.2448   87.6189   12.6237 C.2     1  UNL1        0.2258
     22 O          62.2901   87.4829   11.4748 O.2     1  UNL1       -0.2749
     23 C          62.6276   85.0953   12.6147 C.3     1  UNL1        0.1131
     24 C          66.8319   93.1503   15.6902 C.3     1  UNL1        0.0189
     25 C          67.6154   94.2841   15.0980 C.3     1  UNL1        0.0015
     26 C          68.1310   93.5697   16.3121 C.3     1  UNL1        0.0015
     27 S          65.8841   91.9613   13.1042 S.O2    1  UNL1        0.0634
     28 O          65.0656   93.0447   12.4669 O.2     1  UNL1       -0.1528
     29 O          66.8130   90.8909   13.5958 O.2     1  UNL1       -0.1528
     30 C          66.6126   92.2635   11.8282 C.ar    1  UNL1        0.1223
     31 C          66.0131   93.2066   10.8277 C.ar    1  UNL1        0.0208
     32 C          66.7416   93.5088    9.5517 C.ar    1  UNL1        0.0128
     33 C          68.0696   92.8680    9.2763 C.ar    1  UNL1        0.0578
     34 CL         68.7980   93.1702    8.0004 Cl      1  UNL1       -0.0822
     35 C          68.6691   91.9249   10.2769 C.ar    1  UNL1        0.0128
     36 C          67.9405   91.6226   11.5529 C.ar    1  UNL1        0.0208
@<TRIPOS>BOND
     1    11    12    1
     2    12    13    2
     3    12    14   am
     4    14    15    1
     5    15    16    1
     6    16    17    1
     7    17    18    1
     8    18    19    1
     9    19    20    1
    10    20    21   am
    11    21    22    2
    12    21    10    1
    13    10     7    1
    14     1     7    1
    15     1     2    1
    16     2     3    1
    17     3     4    1
    18     4     5    1
    19     5    24    1
    20    24    25    1
    21    25    26    1
    22     5     6    1
    23     6    27    1
    24    27    28    2
    25    27    29    2
    26    27    30    1
    27    30    31   ar
    28    31    32   ar
    29    32    33   ar
    30    33    34    1
    31    33    35   ar
    32    35    36   ar
    33     7     8    1
    34     8     9    1
    35    20    23    1
    36    18    14    1
    37     9     7    1
    38    23    15    1
    39     6     1    1
    40    36    30   ar
    41    26    24    1
