@<TRIPOS>MOLECULE
*****
 12 13 0 0 0
SMALL
GASTEIGER

@<TRIPOS>ATOM
      1 C          68.0908   92.0057    9.6507 C.3     1  UNL1        0.0316
      2 C          67.4631   93.3647    9.7451 C.ar    1  UNL1       -0.0148
      3 C          67.9691   94.6168    9.0922 C.ar    1  UNL1        0.0312
      4 S          67.0380   95.7363    9.4526 S.2     1  UNL1       -0.0863
      5 C          65.9565   95.1761   10.3281 C.ar    1  UNL1        0.0352
      6 C          66.2193   93.7103   10.5089 C.ar    1  UNL1        0.0045
      7 C          65.3846   92.7575   11.3124 C.ar    1  UNL1        0.0194
      8 C          64.3392   91.9217   10.6354 C.ar    1  UNL1        0.0031
      9 C          63.5046   90.9689   11.4389 C.ar    1  UNL1        0.0207
     10 C          63.7155   90.8520   12.9194 C.ar    1  UNL1        0.0989
     11 N          64.7609   91.6879   13.5964 N.ar    1  UNL1       -0.2423
     12 C          65.5955   92.6406   12.7929 C.ar    1  UNL1        0.0988
@<TRIPOS>BOND
     1     1     2    1
     2     2     3   ar
     3     3     4   ar
     4     4     5   ar
     5     5     6   ar
     6     6     7    1
     7     7     8   ar
     8     8     9   ar
     9     9    10   ar
    10    10    11   ar
    11    11    12   ar
    12     6     2   ar
    13    12     7   ar
@<TRIPOS>MOLECULE
*****
 12 13 0 0 0
SMALL
GASTEIGER

@<TRIPOS>ATOM
      1 C          67.8130   92.1814   14.2347 C.3     1  UNL1        0.0316
      2 C          66.4383   91.8248   13.7519 C.ar    1  UNL1       -0.0148
      3 C          65.4251   91.0099   14.4998 C.ar    1  UNL1        0.0312
      4 S          64.1960   90.9019   13.6467 S.2     1  UNL1       -0.0863
      5 C          64.4497   91.6501   12.3716 C.ar    1  UNL1        0.0352
      6 C          65.8355   92.2205   12.4367 C.ar    1  UNL1        0.0045
      7 C          66.5015   93.0423   11.3731 C.ar    1  UNL1        0.0194
      8 C          67.3950   92.3825   10.3650 C.ar    1  UNL1        0.0031
      9 C          68.0609   93.2043    9.3015 C.ar    1  UNL1        0.0207
     10 C          67.8334   94.6859    9.2461 C.ar    1  UNL1        0.0989
     11 N          66.9399   95.3457   10.2542 N.ar    1  UNL1       -0.2423
     12 C          66.2740   94.5239   11.3177 C.ar    1  UNL1        0.0988
@<TRIPOS>BOND
     1     1     2    1
     2     2     3   ar
     3     3     4   ar
     4     4     5   ar
     5     5     6   ar
     6     6     7    1
     7     7     8   ar
     8     8     9   ar
     9     9    10   ar
    10    10    11   ar
    11    11    12   ar
    12     6     2   ar
    13    12     7   ar
@<TRIPOS>MOLECULE
*****
 12 13 0 0 0
SMALL
GASTEIGER

@<TRIPOS>ATOM
      1 C          63.5023   91.4895   10.5051 C.3     1  UNL1        0.0316
      2 C          64.2571   91.5136   11.8011 C.ar    1  UNL1       -0.0148
      3 C          63.8610   90.8100   13.0652 C.ar    1  UNL1        0.0312
      4 S          64.8996   91.1070   14.1060 S.2     1  UNL1       -0.0863
      5 C          65.9375   91.9941   13.4851 C.ar    1  UNL1        0.0352
      6 C          65.5405   92.2454   12.0605 C.ar    1  UNL1        0.0045
      7 C          66.2945   93.0817   11.0695 C.ar    1  UNL1        0.0194
      8 C          67.3858   92.4660   10.2450 C.ar    1  UNL1        0.0031
      9 C          68.1398   93.3023    9.2540 C.ar    1  UNL1        0.0207
     10 C          67.8024   94.7543    9.0875 C.ar    1  UNL1        0.0989
     11 N          66.7110   95.3700    9.9119 N.ar    1  UNL1       -0.2423
     12 C          65.9571   94.5337   10.9029 C.ar    1  UNL1        0.0988
@<TRIPOS>BOND
     1     1     2    1
     2     2     3   ar
     3     3     4   ar
     4     4     5   ar
     5     5     6   ar
     6     6     7    1
     7     7     8   ar
     8     8     9   ar
     9     9    10   ar
    10    10    11   ar
    11    11    12   ar
    12     6     2   ar
    13    12     7   ar
@<TRIPOS>MOLECULE
*****
 12 13 0 0 0
SMALL
GASTEIGER

@<TRIPOS>ATOM
      1 C          62.8507   85.5839    8.6531 C.3     1  UNL1        0.0316
      2 C          61.5185   86.2581    8.5093 C.ar    1  UNL1       -0.0148
      3 C          60.4107   85.8348    7.5910 C.ar    1  UNL1        0.0312
      4 S          59.2677   86.7891    7.7727 S.2     1  UNL1       -0.0863
      5 C          59.6692   87.8022    8.8034 C.ar    1  UNL1        0.0352
      6 C          61.0603   87.4740    9.2587 C.ar    1  UNL1        0.0045
      7 C          61.8538   88.2293   10.2835 C.ar    1  UNL1        0.0194
      8 C          62.0953   89.6995   10.1107 C.ar    1  UNL1        0.0031
      9 C          62.8888   90.4547   11.1354 C.ar    1  UNL1        0.0207
     10 C          63.4407   89.7395   12.3329 C.ar    1  UNL1        0.0989
     11 N          63.1992   88.2693   12.5057 N.ar    1  UNL1       -0.2423
     12 C          62.4057   87.5141   11.4809 C.ar    1  UNL1        0.0988
@<TRIPOS>BOND
     1     1     2    1
     2     2     3   ar
     3     3     4   ar
     4     4     5   ar
     5     5     6   ar
     6     6     7    1
     7     7     8   ar
     8     8     9   ar
     9     9    10   ar
    10    10    11   ar
    11    11    12   ar
    12     6     2   ar
    13    12     7   ar
@<TRIPOS>MOLECULE
*****
 12 13 0 0 0
SMALL
GASTEIGER

@<TRIPOS>ATOM
      1 C          62.7514   81.6295   11.9396 C.3     1  UNL1        0.0316
      2 C          63.1534   82.7703   12.8267 C.ar    1  UNL1       -0.0148
      3 C          63.6405   82.6581   14.2410 C.ar    1  UNL1        0.0312
      4 S          63.9271   84.0421   14.7437 S.2     1  UNL1       -0.0863
      5 C          63.6172   85.0095   13.6400 C.ar    1  UNL1        0.0352
      6 C          63.1391   84.2235   12.4553 C.ar    1  UNL1        0.0045
      7 C          62.7201   84.7911   11.1315 C.ar    1  UNL1        0.0194
      8 C          63.4402   84.3855    9.8798 C.ar    1  UNL1        0.0031
      9 C          63.0212   84.9531    8.5561 C.ar    1  UNL1        0.0207
     10 C          61.8821   85.9264    8.4841 C.ar    1  UNL1        0.0989
     11 N          61.1620   86.3321    9.7358 N.ar    1  UNL1       -0.2423
     12 C          61.5810   85.7645   11.0595 C.ar    1  UNL1        0.0988
@<TRIPOS>BOND
     1     1     2    1
     2     2     3   ar
     3     3     4   ar
     4     4     5   ar
     5     5     6   ar
     6     6     7    1
     7     7     8   ar
     8     8     9   ar
     9     9    10   ar
    10    10    11   ar
    11    11    12   ar
    12     6     2   ar
    13    12     7   ar
@<TRIPOS>MOLECULE
*****
 12 13 0 0 0
SMALL
GASTEIGER

@<TRIPOS>ATOM
      1 C          62.4065   88.8112   10.6607 C.3     1  UNL1        0.0316
      2 C          61.4397   88.1615    9.7156 C.ar    1  UNL1       -0.0148
      3 C          60.4162   88.8683    8.8774 C.ar    1  UNL1        0.0312
      4 S          59.6706   87.8345    8.0865 S.2     1  UNL1       -0.0863
      5 C          60.2334   86.4888    8.4360 C.ar    1  UNL1        0.0352
      6 C          61.3268   86.6908    9.4428 C.ar    1  UNL1        0.0045
      7 C          62.1608   85.6116   10.0672 C.ar    1  UNL1        0.0194
      8 C          63.0742   84.7817    9.2146 C.ar    1  UNL1        0.0031
      9 C          63.9081   83.7026    9.8391 C.ar    1  UNL1        0.0207
     10 C          63.8287   83.4534   11.3161 C.ar    1  UNL1        0.0989
     11 N          62.9154   84.2833   12.1687 N.ar    1  UNL1       -0.2423
     12 C          62.0815   85.3624   11.5443 C.ar    1  UNL1        0.0988
@<TRIPOS>BOND
     1     1     2    1
     2     2     3   ar
     3     3     4   ar
     4     4     5   ar
     5     5     6   ar
     6     6     7    1
     7     7     8   ar
     8     8     9   ar
     9     9    10   ar
    10    10    11   ar
    11    11    12   ar
    12     6     2   ar
    13    12     7   ar
@<TRIPOS>MOLECULE
*****
 12 13 0 0 0
SMALL
GASTEIGER

@<TRIPOS>ATOM
      1 C          65.2301   92.7615   11.1380 C.3     1  UNL1        0.0316
      2 C          64.6086   91.7125   12.0117 C.ar    1  UNL1       -0.0148
      3 C          63.3979   90.8918   11.6788 C.ar    1  UNL1        0.0312
      4 S          63.1297   89.9721   12.8330 S.2     1  UNL1       -0.0863
      5 C          64.1746   90.2244   13.8792 C.ar    1  UNL1        0.0352
      6 C          65.0886   91.3000   13.3716 C.ar    1  UNL1        0.0045
      7 C          66.2744   91.8641   14.0967 C.ar    1  UNL1        0.0194
      8 C          66.1179   92.3963   15.4903 C.ar    1  UNL1        0.0031
      9 C          67.3037   92.9604   16.2153 C.ar    1  UNL1        0.0207
     10 C          68.6460   92.9922   15.5466 C.ar    1  UNL1        0.0989
     11 N          68.8026   92.4599   14.1531 N.ar    1  UNL1       -0.2423
     12 C          67.6168   91.8959   13.4281 C.ar    1  UNL1        0.0988
@<TRIPOS>BOND
     1     1     2    1
     2     2     3   ar
     3     3     4   ar
     4     4     5   ar
     5     5     6   ar
     6     6     7    1
     7     7     8   ar
     8     8     9   ar
     9     9    10   ar
    10    10    11   ar
    11    11    12   ar
    12     6     2   ar
    13    12     7   ar
@<TRIPOS>MOLECULE
*****
 12 13 0 0 0
SMALL
GASTEIGER

@<TRIPOS>ATOM
      1 C          62.8604   85.2212    7.9691 C.3     1  UNL1        0.0316
      2 C          62.0616   85.9496    9.0090 C.ar    1  UNL1       -0.0148
      3 C          61.1473   87.1131    8.7634 C.ar    1  UNL1        0.0312
      4 S          60.5574   87.5250   10.0796 S.2     1  UNL1       -0.0863
      5 C          61.1071   86.6160   11.1386 C.ar    1  UNL1        0.0352
      6 C          62.0368   85.6424   10.4770 C.ar    1  UNL1        0.0045
      7 C          62.8065   84.5528   11.1629 C.ar    1  UNL1        0.0194
      8 C          63.6386   83.6004   10.3565 C.ar    1  UNL1        0.0031
      9 C          64.4082   82.5109   11.0424 C.ar    1  UNL1        0.0207
     10 C          64.3457   82.3737   12.5348 C.ar    1  UNL1        0.0989
     11 N          63.5135   83.3261   13.3413 N.ar    1  UNL1       -0.2423
     12 C          62.7439   84.4156   12.6553 C.ar    1  UNL1        0.0988
@<TRIPOS>BOND
     1     1     2    1
     2     2     3   ar
     3     3     4   ar
     4     4     5   ar
     5     5     6   ar
     6     6     7    1
     7     7     8   ar
     8     8     9   ar
     9     9    10   ar
    10    10    11   ar
    11    11    12   ar
    12     6     2   ar
    13    12     7   ar
@<TRIPOS>MOLECULE
*****
 12 13 0 0 0
SMALL
GASTEIGER

@<TRIPOS>ATOM
      1 C          63.3156   90.9408   11.4685 C.3     1  UNL1        0.0316
      2 C          64.5179   91.6279   12.0448 C.ar    1  UNL1       -0.0148
      3 C          65.4173   92.5857   11.3212 C.ar    1  UNL1        0.0312
      4 S          66.4873   93.0276   12.2751 S.2     1  UNL1       -0.0863
      5 C          66.2492   92.3430   13.5883 C.ar    1  UNL1        0.0352
      6 C          65.0320   91.4779   13.4460 C.ar    1  UNL1        0.0045
      7 C          64.4339   90.6144   14.5169 C.ar    1  UNL1        0.0194
      8 C          64.3912   89.1252   14.3428 C.ar    1  UNL1        0.0031
      9 C          63.7931   88.2618   15.4136 C.ar    1  UNL1        0.0207
     10 C          63.2379   88.8876   16.6586 C.ar    1  UNL1        0.0989
     11 N          63.2806   90.3768   16.8328 N.ar    1  UNL1       -0.2423
     12 C          63.8787   91.2402   15.7619 C.ar    1  UNL1        0.0988
@<TRIPOS>BOND
     1     1     2    1
     2     2     3   ar
     3     3     4   ar
     4     4     5   ar
     5     5     6   ar
     6     6     7    1
     7     7     8   ar
     8     8     9   ar
     9     9    10   ar
    10    10    11   ar
    11    11    12   ar
    12     6     2   ar
    13    12     7   ar
