@<TRIPOS>MOLECULE
*****
 22 24 0 0 0
SMALL
GASTEIGER

@<TRIPOS>ATOM
      1 C          64.1237   90.5098   12.7436 C.ar    1  UNL1        0.0001
      2 C          63.6756   91.1621   11.4694 C.ar    1  UNL1        0.0000
      3 C          62.8284   90.3998   10.4942 C.ar    1  UNL1        0.0000
      4 C          62.4292   88.9851   10.7932 C.ar    1  UNL1        0.0001
      5 C          62.8773   88.3328   12.0675 C.ar    1  UNL1        0.0000
      6 C          63.7245   89.0951   13.0426 C.ar    1  UNL1        0.0000
      7 O          64.7746   92.6287   17.4433 O.3     1  UNL1       -0.5055
      8 C          65.2964   92.3315   16.0687 C.ar    1  UNL1        0.1337
      9 C          66.6654   92.7966   15.6694 C.ar    1  UNL1        0.0366
     10 C          67.1871   92.4995   14.2948 C.ar    1  UNL1        0.0031
     11 C          66.3400   91.7372   13.3196 C.ar    1  UNL1        0.0002
     12 C          64.9710   91.2721   13.7189 C.ar    1  UNL1        0.0030
     13 C          64.4492   91.5692   15.0935 C.ar    1  UNL1        0.0366
     14 H          65.3038   93.1048   18.0525 H       1  UNL1        0.2922
     15 C          61.5820   88.2228    9.8180 C.ar    1  UNL1        0.0030
     16 C          61.7329   86.7355    9.6960 C.ar    1  UNL1        0.0002
     17 C          60.8856   85.9731    8.7208 C.ar    1  UNL1        0.0031
     18 C          59.8875   86.6981    7.8676 C.ar    1  UNL1        0.0366
     19 C          59.7366   88.1856    7.9896 C.ar    1  UNL1        0.1337
     20 O          58.7385   88.9106    7.1363 O.3     1  UNL1       -0.5055
     21 C          60.5838   88.9479    8.9647 C.ar    1  UNL1        0.0366
     22 H          58.2092   88.4344    6.5271 H       1  UNL1        0.2922
@<TRIPOS>BOND
     1     7     8    1
     2     8     9   ar
     3     9    10   ar
     4    10    11   ar
     5    11    12   ar
     6    12     1    1
     7     1     2   ar
     8     2     3   ar
     9     3     4   ar
    10     4    15    1
    11    15    16   ar
    12    16    17   ar
    13    17    18   ar
    14    18    19   ar
    15    19    20    1
    16    19    21   ar
    17     4     5   ar
    18     5     6   ar
    19    12    13   ar
    20    13     8   ar
    21     6     1   ar
    22    21    15   ar
    23     7    14    1
    24    20    22    1
@<TRIPOS>MOLECULE
*****
 22 24 0 0 0
SMALL
GASTEIGER

@<TRIPOS>ATOM
      1 C          62.3974   88.9926   10.7497 C.ar    1  UNL1        0.0001
      2 C          62.8597   88.3294   12.0132 C.ar    1  UNL1        0.0000
      3 C          63.7074   89.0876   12.9913 C.ar    1  UNL1        0.0000
      4 C          64.0927   90.5088   12.7059 C.ar    1  UNL1        0.0001
      5 C          63.6304   91.1720   11.4423 C.ar    1  UNL1        0.0000
      6 C          62.7827   90.4138   10.4642 C.ar    1  UNL1        0.0000
      7 O          58.7130   88.9354    7.0860 O.3     1  UNL1       -0.5055
      8 C          59.7075   88.2059    7.9397 C.ar    1  UNL1        0.1337
      9 C          59.8543   86.7183    7.8153 C.ar    1  UNL1        0.0366
     10 C          60.8488   85.9888    8.6690 C.ar    1  UNL1        0.0031
     11 C          61.6965   86.7468    9.6471 C.ar    1  UNL1        0.0002
     12 C          61.5497   88.2344    9.7715 C.ar    1  UNL1        0.0030
     13 C          60.5552   88.9639    8.9178 C.ar    1  UNL1        0.0366
     14 H          58.1835   88.4618    6.4750 H       1  UNL1        0.2922
     15 C          64.9404   91.2670   13.6839 C.ar    1  UNL1        0.0030
     16 C          66.3111   91.7296   13.2875 C.ar    1  UNL1        0.0002
     17 C          67.1588   92.4878   14.2656 C.ar    1  UNL1        0.0031
     18 C          66.6358   92.7833   15.6401 C.ar    1  UNL1        0.0366
     19 C          65.2650   92.3206   16.0364 C.ar    1  UNL1        0.1337
     20 O          64.7420   92.6161   17.4109 O.3     1  UNL1       -0.5055
     21 C          64.4174   91.5625   15.0584 C.ar    1  UNL1        0.0366
     22 H          65.2715   93.0897   18.0219 H       1  UNL1        0.2922
@<TRIPOS>BOND
     1     7     8    1
     2     8     9   ar
     3     9    10   ar
     4    10    11   ar
     5    11    12   ar
     6    12     1    1
     7     1     2   ar
     8     2     3   ar
     9     3     4   ar
    10     4    15    1
    11    15    16   ar
    12    16    17   ar
    13    17    18   ar
    14    18    19   ar
    15    19    20    1
    16    19    21   ar
    17     4     5   ar
    18     5     6   ar
    19    12    13   ar
    20    13     8   ar
    21     6     1   ar
    22    21    15   ar
    23     7    14    1
    24    20    22    1
@<TRIPOS>MOLECULE
*****
 22 24 0 0 0
SMALL
GASTEIGER

@<TRIPOS>ATOM
      1 C          62.3700   88.4169   10.6153 C.ar    1  UNL1        0.0001
      2 C          62.5724   89.8869   10.3960 C.ar    1  UNL1        0.0000
      3 C          63.2607   90.7134   11.4416 C.ar    1  UNL1        0.0000
      4 C          63.7465   90.0699   12.7064 C.ar    1  UNL1        0.0001
      5 C          63.5441   88.5998   12.9257 C.ar    1  UNL1        0.0000
      6 C          62.8558   87.7733   11.8801 C.ar    1  UNL1        0.0000
      7 O          58.2567   87.5332    7.5656 O.3     1  UNL1       -0.5055
      8 C          59.6251   87.1485    8.0449 C.ar    1  UNL1        0.1337
      9 C          60.3052   85.9375    7.4786 C.ar    1  UNL1        0.0366
     10 C          61.6735   85.5528    7.9578 C.ar    1  UNL1        0.0031
     11 C          62.3618   86.3793    9.0034 C.ar    1  UNL1        0.0002
     12 C          61.6817   87.5904    9.5697 C.ar    1  UNL1        0.0030
     13 C          60.3134   87.9750    9.0904 C.ar    1  UNL1        0.0366
     14 H          57.8268   87.0169    6.9125 H       1  UNL1        0.2922
     15 C          64.4348   90.8963   13.7520 C.ar    1  UNL1        0.0030
     16 C          63.9248   90.8974   15.1626 C.ar    1  UNL1        0.0002
     17 C          64.6131   91.7239   16.2083 C.ar    1  UNL1        0.0031
     18 C          65.8113   92.5492   15.8432 C.ar    1  UNL1        0.0366
     19 C          66.3212   92.5480   14.4325 C.ar    1  UNL1        0.1337
     20 O          67.5194   93.3733   14.0675 O.3     1  UNL1       -0.5055
     21 C          65.6330   91.7216   13.3869 C.ar    1  UNL1        0.0366
     22 H          67.9493   93.8896   14.7206 H       1  UNL1        0.2922
@<TRIPOS>BOND
     1     7     8    1
     2     8     9   ar
     3     9    10   ar
     4    10    11   ar
     5    11    12   ar
     6    12     1    1
     7     1     2   ar
     8     2     3   ar
     9     3     4   ar
    10     4    15    1
    11    15    16   ar
    12    16    17   ar
    13    17    18   ar
    14    18    19   ar
    15    19    20    1
    16    19    21   ar
    17     4     5   ar
    18     5     6   ar
    19    12    13   ar
    20    13     8   ar
    21     6     1   ar
    22    21    15   ar
    23     7    14    1
    24    20    22    1
@<TRIPOS>MOLECULE
*****
 22 24 0 0 0
SMALL
GASTEIGER

@<TRIPOS>ATOM
      1 C          64.8035   90.7904   13.3062 C.ar    1  UNL1        0.0001
      2 C          64.3375   91.4726   12.0542 C.ar    1  UNL1        0.0000
      3 C          63.3709   90.7814   11.1387 C.ar    1  UNL1        0.0000
      4 C          62.8704   89.4080   11.4753 C.ar    1  UNL1        0.0001
      5 C          63.3365   88.7258   12.7273 C.ar    1  UNL1        0.0000
      6 C          64.3030   89.4170   13.6427 C.ar    1  UNL1        0.0000
      7 O          69.5887   92.5601   14.2910 O.3     1  UNL1       -0.5055
      8 C          68.1627   92.3664   14.7140 C.ar    1  UNL1        0.1337
      9 C          67.7033   92.8639   16.0524 C.ar    1  UNL1        0.0366
     10 C          66.2772   92.6702   16.4754 C.ar    1  UNL1        0.0031
     11 C          65.3107   91.9791   15.5600 C.ar    1  UNL1        0.0002
     12 C          65.7701   91.4816   14.2216 C.ar    1  UNL1        0.0030
     13 C          67.1961   91.6753   13.7986 C.ar    1  UNL1        0.0366
     14 H          70.1925   92.9918   14.8629 H       1  UNL1        0.2922
     15 C          61.9039   88.7168   10.5599 C.ar    1  UNL1        0.0030
     16 C          61.6510   87.2458   10.7088 C.ar    1  UNL1        0.0002
     17 C          60.6844   86.5545    9.7933 C.ar    1  UNL1        0.0031
     18 C          59.9708   87.3343    8.7291 C.ar    1  UNL1        0.0366
     19 C          60.2237   88.8053    8.5802 C.ar    1  UNL1        0.1337
     20 O          59.5101   89.5851    7.5159 O.3     1  UNL1       -0.5055
     21 C          61.1902   89.4965    9.4956 C.ar    1  UNL1        0.0366
     22 H          58.9063   89.1533    6.9441 H       1  UNL1        0.2922
@<TRIPOS>BOND
     1     7     8    1
     2     8     9   ar
     3     9    10   ar
     4    10    11   ar
     5    11    12   ar
     6    12     1    1
     7     1     2   ar
     8     2     3   ar
     9     3     4   ar
    10     4    15    1
    11    15    16   ar
    12    16    17   ar
    13    17    18   ar
    14    18    19   ar
    15    19    20    1
    16    19    21   ar
    17     4     5   ar
    18     5     6   ar
    19    12    13   ar
    20    13     8   ar
    21     6     1   ar
    22    21    15   ar
    23     7    14    1
    24    20    22    1
@<TRIPOS>MOLECULE
*****
 22 24 0 0 0
SMALL
GASTEIGER

@<TRIPOS>ATOM
      1 C          64.6588   90.1072   14.1768 C.ar    1  UNL1        0.0001
      2 C          63.9074   90.4513   12.9250 C.ar    1  UNL1        0.0000
      3 C          64.4138   91.5352   12.0202 C.ar    1  UNL1        0.0000
      4 C          65.6717   92.2750   12.3671 C.ar    1  UNL1        0.0001
      5 C          66.4232   91.9309   13.6190 C.ar    1  UNL1        0.0000
      6 C          65.9167   90.8470   14.5237 C.ar    1  UNL1        0.0000
      7 O          64.3206   85.0724   15.4161 O.3     1  UNL1       -0.5055
      8 C          63.9833   86.5059   15.7013 C.ar    1  UNL1        0.1337
      9 C          63.1396   86.8555   16.8912 C.ar    1  UNL1        0.0366
     10 C          62.8023   88.2890   17.1763 C.ar    1  UNL1        0.0031
     11 C          63.3087   89.3729   16.2715 C.ar    1  UNL1        0.0002
     12 C          64.1524   89.0233   15.0816 C.ar    1  UNL1        0.0030
     13 C          64.4897   87.5898   14.7965 C.ar    1  UNL1        0.0366
     14 H          64.0043   84.3953   15.9814 H       1  UNL1        0.2922
     15 C          66.1782   93.3589   11.4624 C.ar    1  UNL1        0.0030
     16 C          66.0250   94.7979   11.8572 C.ar    1  UNL1        0.0002
     17 C          66.5315   95.8818   10.9524 C.ar    1  UNL1        0.0031
     18 C          67.1911   95.5268    9.6528 C.ar    1  UNL1        0.0366
     19 C          67.3442   94.0877    9.2580 C.ar    1  UNL1        0.1337
     20 O          68.0038   93.7326    7.9585 O.3     1  UNL1       -0.5055
     21 C          66.8377   93.0038   10.1628 C.ar    1  UNL1        0.0366
     22 H          68.3201   94.4097    7.3933 H       1  UNL1        0.2922
@<TRIPOS>BOND
     1     7     8    1
     2     8     9   ar
     3     9    10   ar
     4    10    11   ar
     5    11    12   ar
     6    12     1    1
     7     1     2   ar
     8     2     3   ar
     9     3     4   ar
    10     4    15    1
    11    15    16   ar
    12    16    17   ar
    13    17    18   ar
    14    18    19   ar
    15    19    20    1
    16    19    21   ar
    17     4     5   ar
    18     5     6   ar
    19    12    13   ar
    20    13     8   ar
    21     6     1   ar
    22    21    15   ar
    23     7    14    1
    24    20    22    1
@<TRIPOS>MOLECULE
*****
 22 24 0 0 0
SMALL
GASTEIGER

@<TRIPOS>ATOM
      1 C          65.6520   92.3049   12.4137 C.ar    1  UNL1        0.0001
      2 C          64.4041   91.5545   12.0537 C.ar    1  UNL1        0.0000
      3 C          63.9111   90.4496   12.9405 C.ar    1  UNL1        0.0000
      4 C          64.6662   90.0951   14.1872 C.ar    1  UNL1        0.0001
      5 C          65.9141   90.8456   14.5471 C.ar    1  UNL1        0.0000
      6 C          66.4070   91.9504   13.6604 C.ar    1  UNL1        0.0000
      7 O          67.9663   93.8637    8.0303 O.3     1  UNL1       -0.5055
      8 C          67.3021   94.1891    9.3352 C.ar    1  UNL1        0.1337
      9 C          67.1309   95.6194    9.7535 C.ar    1  UNL1        0.0366
     10 C          66.4667   95.9448   11.0584 C.ar    1  UNL1        0.0031
     11 C          65.9737   94.8400   11.9452 C.ar    1  UNL1        0.0002
     12 C          66.1450   93.4098   11.5269 C.ar    1  UNL1        0.0030
     13 C          66.8091   93.0843   10.2220 C.ar    1  UNL1        0.0366
     14 H          68.2742   94.5538    7.4763 H       1  UNL1        0.2922
     15 C          64.1733   88.9903   15.0739 C.ar    1  UNL1        0.0030
     16 C          63.3300   89.3103   16.2724 C.ar    1  UNL1        0.0002
     17 C          62.8370   88.2054   17.1593 C.ar    1  UNL1        0.0031
     18 C          63.1874   86.7806   16.8475 C.ar    1  UNL1        0.0366
     19 C          64.0308   86.4607   15.6489 C.ar    1  UNL1        0.1337
     20 O          64.3811   85.0359   15.3371 O.3     1  UNL1       -0.5055
     21 C          64.5236   87.5655   14.7622 C.ar    1  UNL1        0.0366
     22 H          64.0732   84.3457   15.8911 H       1  UNL1        0.2922
@<TRIPOS>BOND
     1     7     8    1
     2     8     9   ar
     3     9    10   ar
     4    10    11   ar
     5    11    12   ar
     6    12     1    1
     7     1     2   ar
     8     2     3   ar
     9     3     4   ar
    10     4    15    1
    11    15    16   ar
    12    16    17   ar
    13    17    18   ar
    14    18    19   ar
    15    19    20    1
    16    19    21   ar
    17     4     5   ar
    18     5     6   ar
    19    12    13   ar
    20    13     8   ar
    21     6     1   ar
    22    21    15   ar
    23     7    14    1
    24    20    22    1
@<TRIPOS>MOLECULE
*****
 22 24 0 0 0
SMALL
GASTEIGER

@<TRIPOS>ATOM
      1 C          62.5266   88.7798   11.0304 C.ar    1  UNL1        0.0001
      2 C          62.8131   90.2289   10.7696 C.ar    1  UNL1        0.0000
      3 C          63.6378   91.0175   11.7433 C.ar    1  UNL1        0.0000
      4 C          64.1760   90.3569   12.9778 C.ar    1  UNL1        0.0001
      5 C          63.8895   88.9077   13.2386 C.ar    1  UNL1        0.0000
      6 C          63.0648   88.1192   12.2649 C.ar    1  UNL1        0.0000
      7 O          62.1457   85.0134    7.4710 O.3     1  UNL1       -0.5055
      8 C          61.5115   86.1081    8.2770 C.ar    1  UNL1        0.1337
      9 C          60.0527   86.4141    8.1093 C.ar    1  UNL1        0.0366
     10 C          59.4185   87.5087    8.9153 C.ar    1  UNL1        0.0031
     11 C          60.2431   88.2973    9.8890 C.ar    1  UNL1        0.0002
     12 C          61.7019   87.9912   10.0567 C.ar    1  UNL1        0.0030
     13 C          62.3361   86.8966    9.2507 C.ar    1  UNL1        0.0366
     14 H          61.6305   84.5208    6.8628 H       1  UNL1        0.2922
     15 C          65.0007   91.1454   13.9515 C.ar    1  UNL1        0.0030
     16 C          66.4048   91.5383   13.5994 C.ar    1  UNL1        0.0002
     17 C          67.2296   92.3269   14.5731 C.ar    1  UNL1        0.0031
     18 C          66.6501   92.7224   15.8990 C.ar    1  UNL1        0.0366
     19 C          65.2459   92.3295   16.2510 C.ar    1  UNL1        0.1337
     20 O          64.6665   92.7250   17.5769 O.3     1  UNL1       -0.5055
     21 C          64.4213   91.5410   15.2773 C.ar    1  UNL1        0.0366
     22 H          65.1817   93.2176   18.1851 H       1  UNL1        0.2922
@<TRIPOS>BOND
     1     7     8    1
     2     8     9   ar
     3     9    10   ar
     4    10    11   ar
     5    11    12   ar
     6    12     1    1
     7     1     2   ar
     8     2     3   ar
     9     3     4   ar
    10     4    15    1
    11    15    16   ar
    12    16    17   ar
    13    17    18   ar
    14    18    19   ar
    15    19    20    1
    16    19    21   ar
    17     4     5   ar
    18     5     6   ar
    19    12    13   ar
    20    13     8   ar
    21     6     1   ar
    22    21    15   ar
    23     7    14    1
    24    20    22    1
@<TRIPOS>MOLECULE
*****
 22 24 0 0 0
SMALL
GASTEIGER

@<TRIPOS>ATOM
      1 C          63.7732   90.1076   12.7329 C.ar    1  UNL1        0.0001
      2 C          63.2820   90.7546   11.4719 C.ar    1  UNL1        0.0000
      3 C          62.5529   89.9392   10.4453 C.ar    1  UNL1        0.0000
      4 C          62.3153   88.4769   10.6798 C.ar    1  UNL1        0.0001
      5 C          62.8066   87.8299   11.9408 C.ar    1  UNL1        0.0000
      6 C          63.5355   88.6452   12.9673 C.ar    1  UNL1        0.0000
      7 O          67.6391   93.3427   13.9935 O.3     1  UNL1       -0.5055
      8 C          66.4352   92.5405   14.3897 C.ar    1  UNL1        0.1337
      9 C          65.9602   92.5537   15.8124 C.ar    1  UNL1        0.0366
     10 C          64.7563   91.7515   16.2087 C.ar    1  UNL1        0.0031
     11 C          64.0273   90.9361   15.1822 C.ar    1  UNL1        0.0002
     12 C          64.5022   90.9230   13.7594 C.ar    1  UNL1        0.0030
     13 C          65.7062   91.7252   13.3632 C.ar    1  UNL1        0.0366
     14 H          68.0945   93.8520   14.6347 H       1  UNL1        0.2922
     15 C          61.5863   87.6615    9.6533 C.ar    1  UNL1        0.0030
     16 C          60.1333   87.9194    9.3844 C.ar    1  UNL1        0.0002
     17 C          59.4043   87.1040    8.3578 C.ar    1  UNL1        0.0031
     18 C          60.1283   86.0307    7.6002 C.ar    1  UNL1        0.0366
     19 C          61.5813   85.7728    7.8692 C.ar    1  UNL1        0.1337
     20 O          62.3053   84.6996    7.1116 O.3     1  UNL1       -0.5055
     21 C          62.3103   86.5882    8.8957 C.ar    1  UNL1        0.0366
     22 H          61.8500   84.1902    6.4704 H       1  UNL1        0.2922
@<TRIPOS>BOND
     1     7     8    1
     2     8     9   ar
     3     9    10   ar
     4    10    11   ar
     5    11    12   ar
     6    12     1    1
     7     1     2   ar
     8     2     3   ar
     9     3     4   ar
    10     4    15    1
    11    15    16   ar
    12    16    17   ar
    13    17    18   ar
    14    18    19   ar
    15    19    20    1
    16    19    21   ar
    17     4     5   ar
    18     5     6   ar
    19    12    13   ar
    20    13     8   ar
    21     6     1   ar
    22    21    15   ar
    23     7    14    1
    24    20    22    1
@<TRIPOS>MOLECULE
*****
 22 24 0 0 0
SMALL
GASTEIGER

@<TRIPOS>ATOM
      1 C          63.0411   89.8705   11.4815 C.ar    1  UNL1        0.0001
      2 C          63.7081   91.1555   11.0893 C.ar    1  UNL1        0.0000
      3 C          64.7475   91.7644   11.9831 C.ar    1  UNL1        0.0000
      4 C          65.1200   91.0881   13.2692 C.ar    1  UNL1        0.0001
      5 C          64.4530   89.8030   13.6614 C.ar    1  UNL1        0.0000
      6 C          63.4136   89.1943   12.7675 C.ar    1  UNL1        0.0000
      7 O          60.9887   85.7015    9.1561 O.3     1  UNL1       -0.5055
      8 C          60.9755   87.1772    9.4249 C.ar    1  UNL1        0.1337
      9 C          59.9229   88.0440    8.8000 C.ar    1  UNL1        0.0366
     10 C          59.9096   89.5196    9.0689 C.ar    1  UNL1        0.0031
     11 C          60.9490   90.1285    9.9627 C.ar    1  UNL1        0.0002
     12 C          62.0017   89.2617   10.5876 C.ar    1  UNL1        0.0030
     13 C          62.0149   87.7860   10.3187 C.ar    1  UNL1        0.0366
     14 H          60.3395   85.3212    8.5977 H       1  UNL1        0.2922
     15 C          66.1594   91.6969   14.1630 C.ar    1  UNL1        0.0030
     16 C          65.7753   92.2087   15.5196 C.ar    1  UNL1        0.0002
     17 C          66.8147   92.8175   16.4135 C.ar    1  UNL1        0.0031
     18 C          68.2383   92.9144   15.9508 C.ar    1  UNL1        0.0366
     19 C          68.6224   92.4025   14.5941 C.ar    1  UNL1        0.1337
     20 O          70.0459   92.4995   14.1313 O.3     1  UNL1       -0.5055
     21 C          67.5830   91.7938   13.7002 C.ar    1  UNL1        0.0366
     22 H          70.6952   92.8797   14.6897 H       1  UNL1        0.2922
@<TRIPOS>BOND
     1     7     8    1
     2     8     9   ar
     3     9    10   ar
     4    10    11   ar
     5    11    12   ar
     6    12     1    1
     7     1     2   ar
     8     2     3   ar
     9     3     4   ar
    10     4    15    1
    11    15    16   ar
    12    16    17   ar
    13    17    18   ar
    14    18    19   ar
    15    19    20    1
    16    19    21   ar
    17     4     5   ar
    18     5     6   ar
    19    12    13   ar
    20    13     8   ar
    21     6     1   ar
    22    21    15   ar
    23     7    14    1
    24    20    22    1
