@<TRIPOS>MOLECULE
*****
 39 43 0 0 0
SMALL
GASTEIGER

@<TRIPOS>ATOM
      1 C          60.2392   89.1622    7.5246 C.ar    1  UNL1       -0.0223
      2 C          59.5904   87.8116    7.5936 C.ar    1  UNL1       -0.0030
      3 C          59.8214   86.9284    8.7839 C.ar    1  UNL1        0.0143
      4 C          60.7014   87.3959    9.9051 C.ar    1  UNL1        0.0502
      5 C          61.3503   88.7465    9.8361 C.ar    1  UNL1        0.0089
      6 C          61.1192   89.6297    8.6459 C.ar    1  UNL1       -0.0034
      7 C          59.3149   92.6950    2.7638 C.2     1  UNL1        0.2317
      8 O          57.9171   92.9706    2.2945 O.2     1  UNL1       -0.2744
      9 N          59.5459   91.8118    3.9540 N.am    1  UNL1       -0.2792
     10 C          58.3793   91.2042    4.6749 C.3     1  UNL1        0.0937
     11 C          58.6104   90.3210    5.8651 C.3     1  UNL1        0.0259
     12 C          60.0081   90.0454    6.3344 C.3     1  UNL1        0.0257
     13 C          61.1748   90.6530    5.6135 C.3     1  UNL1        0.0259
     14 C          60.9437   91.5361    4.4233 C.3     1  UNL1        0.0937
     15 C          60.4815   93.3025    2.0429 C.3     1  UNL1        0.1325
     16 C          62.2336   93.5880   -2.9299 C.3     1  UNL1        0.1321
     17 N          61.3340   93.4161   -1.7421 N.ar    1  UNL1       -0.3061
     18 C          59.8685   93.0991   -1.7844 C.ar    1  UNL1        0.1783
     19 N          59.3708   93.0180   -0.3717 N.ar    1  UNL1       -0.2278
     20 C          60.5287   93.2848    0.5437 C.ar    1  UNL1        0.0870
     21 C          61.7421   93.5308   -0.3032 C.ar    1  UNL1        0.0925
     22 C          62.2302   89.2140   10.9573 C.2     1  UNL1       -0.0253
     23 C          62.8122   88.2201   11.9183 C.2     1  UNL1       -0.0303
     24 C          63.6922   88.6875   13.0395 C.3     1  UNL1        0.0257
     25 C          63.9901   90.1489   13.1998 C.3     1  UNL1        0.0050
     26 C          63.4081   91.1428   12.2388 C.3     1  UNL1        0.0050
     27 C          62.5282   90.6753   11.1176 C.3     1  UNL1        0.0261
     28 N          60.9325   86.5127   11.0953 N.am    1  UNL1       -0.2779
     29 C          61.9979   85.4578   11.0508 C.2     1  UNL1        0.2837
     30 O          62.8322   85.2860    9.8162 O.2     1  UNL1       -0.2665
     31 H          60.3849   86.6255   11.9056 H       1  UNL1        0.1553
     32 C          62.2290   84.5746   12.2411 C.ar    1  UNL1        0.1959
     33 N          62.4065   83.0854   12.2127 N.ar    1  UNL1       -0.2123
     34 C          62.6104   82.6159   13.6227 C.ar    1  UNL1        0.1678
     35 C          62.5590   83.8150   14.5224 C.ar    1  UNL1        0.1036
     36 N          62.3233   85.0255   13.6686 N.ar    1  UNL1       -0.3319
     37 H          62.2443   85.9531   13.9888 H       1  UNL1        0.1676
     38 C          62.8276   81.1966   14.0567 C.1     1  UNL1        0.1214
     39 N          63.0448   79.7773   14.4907 N.1     1  UNL1       -0.1892
@<TRIPOS>BOND
     1    16    17    1
     2    17    18   ar
     3    18    19   ar
     4    19    20   ar
     5    20    15    1
     6    15     7    1
     7     7     8    2
     8     7     9   am
     9     9    10    1
    10    10    11    1
    11    11    12    1
    12    12     1    1
    13     1     2   ar
    14     2     3   ar
    15     3     4   ar
    16     4    28    1
    17    28    29   am
    18    29    30    2
    19    29    32    1
    20    32    33   ar
    21    33    34   ar
    22    34    38    1
    23    38    39    3
    24    34    35   ar
    25    35    36   ar
    26     4     5   ar
    27     5    22    1
    28    22    23    2
    29    23    24    1
    30    24    25    1
    31    25    26    1
    32    26    27    1
    33     5     6   ar
    34    12    13    1
    35    13    14    1
    36    20    21   ar
    37    21    17   ar
    38    14     9    1
    39     6     1   ar
    40    36    32   ar
    41    27    22    1
    42    28    31    1
    43    36    37    1
@<TRIPOS>MOLECULE
*****
 39 43 0 0 0
SMALL
GASTEIGER

@<TRIPOS>ATOM
      1 C          60.3407   89.5871    6.9209 C.ar    1  UNL1       -0.0223
      2 C          59.7516   88.2089    6.9772 C.ar    1  UNL1       -0.0030
      3 C          59.9480   87.3585    8.1972 C.ar    1  UNL1        0.0143
      4 C          60.7336   87.8864    9.3608 C.ar    1  UNL1        0.0502
      5 C          61.3228   89.2648    9.3045 C.ar    1  UNL1        0.0089
      6 C          61.1263   90.1151    8.0845 C.ar    1  UNL1       -0.0034
      7 C          59.5550   92.9886    2.0410 C.2     1  UNL1        0.2317
      8 O          58.1907   93.5130    1.7040 O.2     1  UNL1       -0.2744
      9 N          59.7514   92.1382    3.2610 N.am    1  UNL1       -0.2792
     10 C          58.5835   91.8122    4.1440 C.3     1  UNL1        0.0937
     11 C          58.7800   90.9618    5.3639 C.3     1  UNL1        0.0259
     12 C          60.1443   90.4375    5.7009 C.3     1  UNL1        0.0257
     13 C          61.3123   90.7636    4.8180 C.3     1  UNL1        0.0259
     14 C          61.1158   91.6139    3.5980 C.3     1  UNL1        0.0937
     15 C          60.7230   93.3147    1.1581 C.3     1  UNL1        0.1325
     16 C          64.8138   96.5467    1.9946 C.3     1  UNL1        0.1321
     17 N          63.4179   96.0330    1.8011 N.ar    1  UNL1       -0.3061
     18 C          62.1640   96.8560    1.8278 C.ar    1  UNL1        0.1783
     19 N          61.0018   95.9378    1.5901 N.ar    1  UNL1       -0.2278
     20 C          61.5375   94.5475    1.4166 C.ar    1  UNL1        0.0870
     21 C          63.0307   94.6063    1.5470 C.ar    1  UNL1        0.0925
     22 C          62.1083   89.7927   10.4682 C.2     1  UNL1       -0.0253
     23 C          63.1418   90.8586   10.2536 C.2     1  UNL1       -0.0303
     24 C          63.9274   91.3865   11.4173 C.3     1  UNL1        0.0257
     25 C          63.6795   90.8486   12.7955 C.3     1  UNL1        0.0050
     26 C          62.6461   89.7828   13.0099 C.3     1  UNL1        0.0050
     27 C          61.8605   89.2549   11.8463 C.3     1  UNL1        0.0261
     28 N          60.9300   87.0361   10.5808 N.am    1  UNL1       -0.2779
     29 C          61.9672   85.9525   10.5806 C.2     1  UNL1        0.2837
     30 O          62.8079   85.7192    9.3605 O.2     1  UNL1       -0.2665
     31 H          60.3782   87.1892   11.3816 H       1  UNL1        0.1553
     32 C          62.1637   85.1021   11.8006 C.ar    1  UNL1        0.1959
     33 N          62.4203   83.6243   11.8132 N.ar    1  UNL1       -0.2123
     34 C          62.5532   83.1890   13.2425 C.ar    1  UNL1        0.1678
     35 C          62.3787   84.3980   14.1133 C.ar    1  UNL1        0.1036
     36 N          62.1380   85.5803   13.2221 N.ar    1  UNL1       -0.3319
     37 H          61.9892   86.5073   13.5182 H       1  UNL1        0.1676
     38 C          62.8148   81.7905   13.7176 C.1     1  UNL1        0.1214
     39 N          63.0763   80.3920   14.1928 N.1     1  UNL1       -0.1892
@<TRIPOS>BOND
     1    16    17    1
     2    17    18   ar
     3    18    19   ar
     4    19    20   ar
     5    20    15    1
     6    15     7    1
     7     7     8    2
     8     7     9   am
     9     9    10    1
    10    10    11    1
    11    11    12    1
    12    12     1    1
    13     1     2   ar
    14     2     3   ar
    15     3     4   ar
    16     4    28    1
    17    28    29   am
    18    29    30    2
    19    29    32    1
    20    32    33   ar
    21    33    34   ar
    22    34    38    1
    23    38    39    3
    24    34    35   ar
    25    35    36   ar
    26     4     5   ar
    27     5    22    1
    28    22    23    2
    29    23    24    1
    30    24    25    1
    31    25    26    1
    32    26    27    1
    33     5     6   ar
    34    12    13    1
    35    13    14    1
    36    20    21   ar
    37    21    17   ar
    38    14     9    1
    39     6     1   ar
    40    36    32   ar
    41    27    22    1
    42    28    31    1
    43    36    37    1
@<TRIPOS>MOLECULE
*****
 39 43 0 0 0
SMALL
GASTEIGER

@<TRIPOS>ATOM
      1 C          63.7195   87.3455   13.7980 C.ar    1  UNL1       -0.0223
      2 C          63.9278   86.0682   14.5562 C.ar    1  UNL1       -0.0030
      3 C          63.5321   84.7582   13.9419 C.ar    1  UNL1        0.0143
      4 C          62.9281   84.7256   12.5693 C.ar    1  UNL1        0.0502
      5 C          62.7198   86.0030   11.8110 C.ar    1  UNL1        0.0089
      6 C          63.1156   87.3129   12.4253 C.ar    1  UNL1       -0.0034
      7 C          65.3024   92.5854   16.2553 C.2     1  UNL1        0.2317
      8 O          64.5746   93.0978   17.4627 O.2     1  UNL1       -0.2744
      9 N          64.9066   91.2754   15.6410 N.am    1  UNL1       -0.2792
     10 C          63.7832   90.4779   16.2340 C.3     1  UNL1        0.0937
     11 C          63.3875   89.1679   15.6197 C.3     1  UNL1        0.0259
     12 C          64.1153   88.6555   14.4123 C.3     1  UNL1        0.0257
     13 C          65.2388   89.4530   13.8193 C.3     1  UNL1        0.0259
     14 C          65.6344   90.7629   14.4336 C.3     1  UNL1        0.0937
     15 C          66.4258   93.3829   15.6623 C.3     1  UNL1        0.1325
     16 C          67.5377   92.4705   10.5818 C.3     1  UNL1        0.1321
     17 N          67.0411   93.1208   11.8389 N.ar    1  UNL1       -0.3061
     18 C          66.3398   94.4437   11.9296 C.ar    1  UNL1        0.1783
     19 N          66.0240   94.7029   13.3729 N.ar    1  UNL1       -0.2278
     20 C          66.5301   93.5402   14.1742 C.ar    1  UNL1        0.0870
     21 C          67.1587   92.5624   13.2261 C.ar    1  UNL1        0.0925
     22 C          62.1158   85.9704   10.4383 C.2     1  UNL1       -0.0253
     23 C          62.8632   85.3322    9.3050 C.2     1  UNL1       -0.0303
     24 C          62.2592   85.2996    7.9324 C.3     1  UNL1        0.0257
     25 C          60.9078   85.9052    7.6931 C.3     1  UNL1        0.0050
     26 C          60.1605   86.5432    8.8263 C.3     1  UNL1        0.0050
     27 C          60.7645   86.5758   10.1990 C.3     1  UNL1        0.0261
     28 N          62.5324   83.4156   11.9549 N.am    1  UNL1       -0.2779
     29 C          63.5668   82.5554   11.2918 C.2     1  UNL1        0.2837
     30 O          64.9970   83.0050   11.2430 O.2     1  UNL1       -0.2665
     31 H          61.5937   83.1205   11.9869 H       1  UNL1        0.1553
     32 C          63.1711   81.2454   10.6774 C.ar    1  UNL1        0.1959
     33 N          63.3979   79.8877   11.2735 N.ar    1  UNL1       -0.2123
     34 C          62.8461   78.8663   10.3237 C.ar    1  UNL1        0.1678
     35 C          62.2784   79.5928    9.1404 C.ar    1  UNL1        0.1036
     36 N          62.4792   81.0631    9.3590 N.ar    1  UNL1       -0.3319
     37 H          62.2051   81.7822    8.7451 H       1  UNL1        0.1676
     38 C          62.8597   77.3796   10.5221 C.1     1  UNL1        0.1214
     39 N          62.8733   75.8929   10.7206 N.1     1  UNL1       -0.1892
@<TRIPOS>BOND
     1    16    17    1
     2    17    18   ar
     3    18    19   ar
     4    19    20   ar
     5    20    15    1
     6    15     7    1
     7     7     8    2
     8     7     9   am
     9     9    10    1
    10    10    11    1
    11    11    12    1
    12    12     1    1
    13     1     2   ar
    14     2     3   ar
    15     3     4   ar
    16     4    28    1
    17    28    29   am
    18    29    30    2
    19    29    32    1
    20    32    33   ar
    21    33    34   ar
    22    34    38    1
    23    38    39    3
    24    34    35   ar
    25    35    36   ar
    26     4     5   ar
    27     5    22    1
    28    22    23    2
    29    23    24    1
    30    24    25    1
    31    25    26    1
    32    26    27    1
    33     5     6   ar
    34    12    13    1
    35    13    14    1
    36    20    21   ar
    37    21    17   ar
    38    14     9    1
    39     6     1   ar
    40    36    32   ar
    41    27    22    1
    42    28    31    1
    43    36    37    1
@<TRIPOS>MOLECULE
*****
 39 43 0 0 0
SMALL
GASTEIGER

@<TRIPOS>ATOM
      1 C          64.2620   88.9613   13.4688 C.ar    1  UNL1       -0.0223
      2 C          64.4441   88.0013   14.6068 C.ar    1  UNL1       -0.0030
      3 C          63.8303   86.6342   14.5404 C.ar    1  UNL1        0.0143
      4 C          63.0343   86.2272   13.3359 C.ar    1  UNL1        0.0502
      5 C          62.8523   87.1873   12.1978 C.ar    1  UNL1        0.0089
      6 C          63.4661   88.5543   12.2643 C.ar    1  UNL1       -0.0034
      7 C          66.7174   94.4294   13.7346 C.2     1  UNL1        0.2317
      8 O          67.7583   94.7346   14.7706 O.2     1  UNL1       -0.2744
      9 N          66.1036   93.0624   13.6681 N.am    1  UNL1       -0.2792
     10 C          66.5306   92.0005   14.6377 C.3     1  UNL1        0.0937
     11 C          65.9168   90.6336   14.5713 C.3     1  UNL1        0.0259
     12 C          64.8759   90.3284   13.5352 C.3     1  UNL1        0.0257
     13 C          64.4488   91.3902   12.5656 C.3     1  UNL1        0.0259
     14 C          65.0627   92.7572   12.6321 C.3     1  UNL1        0.0937
     15 C          66.2904   95.4912   12.7650 C.3     1  UNL1        0.1325
     16 C          67.3891   96.8560    7.7839 C.3     1  UNL1        0.1321
     17 N          67.2572   96.0616    9.0494 N.ar    1  UNL1       -0.3061
     18 C          67.6684   94.6316    9.2396 C.ar    1  UNL1        0.1783
     19 N          67.3563   94.2439   10.6547 N.ar    1  UNL1       -0.2278
     20 C          66.7522   95.4343   11.3389 C.ar    1  UNL1        0.0870
     21 C          66.6909   96.5577   10.3468 C.ar    1  UNL1        0.0925
     22 C          62.0564   86.7803   10.9933 C.2     1  UNL1       -0.0253
     23 C          60.7131   87.3974   10.7383 C.2     1  UNL1       -0.0303
     24 C          59.9172   86.9904    9.5338 C.3     1  UNL1        0.0257
     25 C          60.4646   85.9662    8.5842 C.3     1  UNL1        0.0050
     26 C          61.8077   85.3492    8.8392 C.3     1  UNL1        0.0050
     27 C          62.6036   85.7562   10.0437 C.3     1  UNL1        0.0261
     28 N          62.4205   84.8602   13.2694 N.am    1  UNL1       -0.2779
     29 C          63.2271   83.6563   13.6567 C.2     1  UNL1        0.2837
     30 O          64.6475   83.8194   14.1105 O.2     1  UNL1       -0.2665
     31 H          61.4883   84.7531   12.9716 H       1  UNL1        0.1553
     32 C          62.6132   82.2892   13.5903 C.ar    1  UNL1        0.1959
     33 N          61.2849   81.8904   14.1617 N.ar    1  UNL1       -0.2123
     34 C          61.0706   80.4357   13.8654 C.ar    1  UNL1        0.1678
     35 C          62.2666   79.9354   13.1107 C.ar    1  UNL1        0.1036
     36 N          63.2199   81.0809   12.9407 N.ar    1  UNL1       -0.3319
     37 H          64.0909   81.0459   12.4831 H       1  UNL1        0.1676
     38 C          59.8711   79.6238   14.2552 C.1     1  UNL1        0.1214
     39 N          58.6716   78.8119   14.6450 N.1     1  UNL1       -0.1892
@<TRIPOS>BOND
     1    16    17    1
     2    17    18   ar
     3    18    19   ar
     4    19    20   ar
     5    20    15    1
     6    15     7    1
     7     7     8    2
     8     7     9   am
     9     9    10    1
    10    10    11    1
    11    11    12    1
    12    12     1    1
    13     1     2   ar
    14     2     3   ar
    15     3     4   ar
    16     4    28    1
    17    28    29   am
    18    29    30    2
    19    29    32    1
    20    32    33   ar
    21    33    34   ar
    22    34    38    1
    23    38    39    3
    24    34    35   ar
    25    35    36   ar
    26     4     5   ar
    27     5    22    1
    28    22    23    2
    29    23    24    1
    30    24    25    1
    31    25    26    1
    32    26    27    1
    33     5     6   ar
    34    12    13    1
    35    13    14    1
    36    20    21   ar
    37    21    17   ar
    38    14     9    1
    39     6     1   ar
    40    36    32   ar
    41    27    22    1
    42    28    31    1
    43    36    37    1
