@<TRIPOS>MOLECULE
*****
 45 49 0 0 0
SMALL
GASTEIGER

@<TRIPOS>ATOM
      1 N          60.4990   89.8146    8.3648 N.am    1  UNL1       -0.2825
      2 C          59.7325   88.9509    7.4075 C.2     1  UNL1        0.2461
      3 O          59.7039   87.4633    7.5975 O.2     1  UNL1       -0.2729
      4 H          60.5178   90.7910    8.2401 H       1  UNL1        0.1549
      5 C          62.7127   87.9429   11.8067 C.ar    1  UNL1       -0.0022
      6 C          62.1644   87.0797   10.7092 C.ar    1  UNL1       -0.0017
      7 C          61.4266   87.7036    9.5620 C.ar    1  UNL1        0.0144
      8 C          61.2369   89.1907    9.5121 C.ar    1  UNL1        0.0503
      9 C          61.7851   90.0539   10.6095 C.ar    1  UNL1        0.0182
     10 C          62.5231   89.4300   11.7568 C.ar    1  UNL1        0.0700
     11 C          63.0713   90.2932   12.8542 C.3     1  UNL1        0.4184
     12 F          63.6195   91.1564   13.9515 F       1  UNL1       -0.1659
     13 F          61.9199   89.9059   13.7340 F       1  UNL1       -0.1659
     14 F          64.2227   90.6805   11.9743 F       1  UNL1       -0.1659
     15 C          63.4506   87.3190   12.9539 C.3     1  UNL1        0.0992
     16 N          63.4409   82.8488   13.4709 N.3     1  UNL1       -0.2703
     17 C          64.1325   83.7188   14.4782 C.3     1  UNL1        0.0897
     18 C          64.1357   85.2088   14.3059 C.3     1  UNL1        0.0899
     19 N          63.4473   85.8289   13.1262 N.3     1  UNL1       -0.2665
     20 C          62.7557   84.9589   12.1189 C.3     1  UNL1        0.0899
     21 C          62.7525   83.4688   12.2912 C.3     1  UNL1        0.0897
     22 C          62.1501   80.5953   13.5461 C.3     1  UNL1        0.0188
     23 C          63.4376   81.3587   13.6432 C.3     1  UNL1        0.0722
     24 C          58.9947   89.5748    6.2602 C.3     1  UNL1        0.1739
     25 N          59.1078   91.0493    6.0087 N.pl3   1  UNL1       -0.3253
     26 H          58.6959   91.6884    6.6342 H       1  UNL1        0.1473
     27 C          59.8485   91.5501    4.8044 C.ar    1  UNL1        0.0450
     28 C          59.1600   92.4491    3.8207 C.ar    1  UNL1        0.0143
     29 C          59.9007   92.9499    2.6163 C.ar    1  UNL1        0.0013
     30 C          61.3299   92.5516    2.3955 C.ar    1  UNL1        0.0016
     31 C          62.0184   91.6525    3.3793 C.ar    1  UNL1        0.0013
     32 C          61.2777   91.1517    4.5836 C.ar    1  UNL1        0.0143
     33 C          62.0706   93.0523    1.1911 C.ar    1  UNL1        0.0193
     34 C          63.5700   93.0966    1.1976 C.ar    1  UNL1        0.0044
     35 C          64.3107   93.5973   -0.0068 C.ar    1  UNL1        0.0345
     36 C          63.5521   94.0538   -1.2177 C.ar    1  UNL1        0.1342
     37 N          62.0528   94.0095   -1.2241 N.ar    1  UNL1       -0.2290
     38 C          61.3120   93.5088   -0.0197 C.ar    1  UNL1        0.1003
     39 N          64.2928   94.5545   -2.4220 N.am    1  UNL1       -0.2694
     40 C          64.2228   93.7963   -3.7144 C.2     1  UNL1        0.2267
     41 O          63.4121   92.5373   -3.8024 O.2     1  UNL1       -0.2748
     42 H          64.8249   95.3808   -2.3643 H       1  UNL1        0.1563
     43 C          64.9635   94.2970   -4.9188 C.3     1  UNL1        0.0769
     44 C          65.7138   94.0242   -6.1887 C.3     1  UNL1        0.0096
     45 C          65.4963   95.4372   -5.7350 C.3     1  UNL1        0.0096
@<TRIPOS>BOND
     1    22    23    1
     2    23    16    1
     3    16    17    1
     4    17    18    1
     5    18    19    1
     6    19    15    1
     7    15     5    1
     8     5     6   ar
     9     6     7   ar
    10     7     8   ar
    11     8     1    1
    12     1     2   am
    13     2     3    2
    14     2    24    1
    15    24    25    1
    16    25    27    1
    17    27    28   ar
    18    28    29   ar
    19    29    30   ar
    20    30    33    1
    21    33    34   ar
    22    34    35   ar
    23    35    36   ar
    24    36    39    1
    25    39    40   am
    26    40    41    2
    27    40    43    1
    28    43    44    1
    29    44    45    1
    30    36    37   ar
    31    37    38   ar
    32    30    31   ar
    33    31    32   ar
    34     8     9   ar
    35     9    10   ar
    36    10    11    1
    37    11    12    1
    38    11    13    1
    39    11    14    1
    40    19    20    1
    41    20    21    1
    42    21    16    1
    43    10     5   ar
    44    32    27   ar
    45    38    33   ar
    46    45    43    1
    47     1     4    1
    48    25    26    1
    49    39    42    1
@<TRIPOS>MOLECULE
*****
 45 49 0 0 0
SMALL
GASTEIGER

@<TRIPOS>ATOM
      1 N          62.2539   88.8513   12.3733 N.am    1  UNL1       -0.2825
      2 C          62.1593   87.9247   11.1976 C.2     1  UNL1        0.2461
      3 O          63.0722   88.1093   10.0217 O.2     1  UNL1       -0.2729
      4 H          61.6548   88.7301   13.1450 H       1  UNL1        0.1549
      5 C          65.2766   92.1851   12.3730 C.ar    1  UNL1       -0.0022
      6 C          64.4116   91.9568   11.1690 C.ar    1  UNL1       -0.0017
      7 C          63.4041   90.8456   11.1691 C.ar    1  UNL1        0.0144
      8 C          63.2615   89.9626   12.3732 C.ar    1  UNL1        0.0503
      9 C          64.1264   90.1908   13.5773 C.ar    1  UNL1        0.0182
     10 C          65.1340   91.3021   13.5772 C.ar    1  UNL1        0.0700
     11 C          65.9989   91.5304   14.7812 C.3     1  UNL1        0.4184
     12 F          66.8638   91.7586   15.9853 F       1  UNL1       -0.1659
     13 F          67.1564   90.8943   14.0703 F       1  UNL1       -0.1659
     14 F          64.8413   92.1664   15.4922 F       1  UNL1       -0.1659
     15 C          66.2840   93.2964   12.3729 C.3     1  UNL1        0.0992
     16 N          66.7291   95.9297    8.7511 N.3     1  UNL1       -0.2703
     17 C          66.0310   96.4474    9.9736 C.3     1  UNL1        0.0897
     18 C          65.8826   95.5696   11.1809 C.3     1  UNL1        0.0899
     19 N          66.4324   94.1741   11.1657 N.3     1  UNL1       -0.2665
     20 C          67.1305   93.6564    9.9432 C.3     1  UNL1        0.0899
     21 C          67.2789   94.5342    8.7359 C.3     1  UNL1        0.0897
     22 C          65.7891   96.8548    6.5127 C.3     1  UNL1        0.0188
     23 C          66.8774   96.8074    7.5438 C.3     1  UNL1        0.0722
     24 C          61.1518   86.8134   11.1977 C.3     1  UNL1        0.1739
     25 N          59.8707   86.9625   10.4317 N.pl3   1  UNL1       -0.3253
     26 H          59.0725   86.4544   10.7038 H       1  UNL1        0.1473
     27 C          59.8056   87.8858    9.2514 C.ar    1  UNL1        0.0450
     28 C          59.3945   87.3586    7.9087 C.ar    1  UNL1        0.0143
     29 C          59.3294   88.2819    6.7282 C.ar    1  UNL1        0.0013
     30 C          59.6755   89.7323    6.8906 C.ar    1  UNL1        0.0016
     31 C          60.0867   90.2595    8.2334 C.ar    1  UNL1        0.0013
     32 C          60.1517   89.3362    9.4137 C.ar    1  UNL1        0.0143
     33 C          59.6105   90.6556    5.7102 C.ar    1  UNL1        0.0193
     34 C          60.8641   91.0148    4.9689 C.ar    1  UNL1        0.0044
     35 C          60.7991   91.9380    3.7886 C.ar    1  UNL1        0.0345
     36 C          59.4804   92.5022    3.3494 C.ar    1  UNL1        0.1342
     37 N          58.2268   92.1430    4.0906 N.ar    1  UNL1       -0.2290
     38 C          58.2918   91.2197    5.2710 C.ar    1  UNL1        0.1003
     39 N          59.4154   93.4254    2.1690 N.am    1  UNL1       -0.2694
     40 C          59.9786   92.9939    0.8474 C.2     1  UNL1        0.2267
     41 O          60.6067   91.6391    0.7061 O.2     1  UNL1       -0.2748
     42 H          59.0031   94.3146    2.2617 H       1  UNL1        0.1563
     43 C          59.9135   93.9172   -0.3330 C.3     1  UNL1        0.0769
     44 C          59.1655   94.9252   -1.1541 C.3     1  UNL1        0.0096
     45 C          60.5490   94.5082   -1.5565 C.3     1  UNL1        0.0096
@<TRIPOS>BOND
     1    22    23    1
     2    23    16    1
     3    16    17    1
     4    17    18    1
     5    18    19    1
     6    19    15    1
     7    15     5    1
     8     5     6   ar
     9     6     7   ar
    10     7     8   ar
    11     8     1    1
    12     1     2   am
    13     2     3    2
    14     2    24    1
    15    24    25    1
    16    25    27    1
    17    27    28   ar
    18    28    29   ar
    19    29    30   ar
    20    30    33    1
    21    33    34   ar
    22    34    35   ar
    23    35    36   ar
    24    36    39    1
    25    39    40   am
    26    40    41    2
    27    40    43    1
    28    43    44    1
    29    44    45    1
    30    36    37   ar
    31    37    38   ar
    32    30    31   ar
    33    31    32   ar
    34     8     9   ar
    35     9    10   ar
    36    10    11    1
    37    11    12    1
    38    11    13    1
    39    11    14    1
    40    19    20    1
    41    20    21    1
    42    21    16    1
    43    10     5   ar
    44    32    27   ar
    45    38    33   ar
    46    45    43    1
    47     1     4    1
    48    25    26    1
    49    39    42    1
@<TRIPOS>MOLECULE
*****
 45 49 0 0 0
SMALL
GASTEIGER

@<TRIPOS>ATOM
      1 N          60.3780   88.7086    8.2123 N.am    1  UNL1       -0.2825
      2 C          59.2431   88.3475    7.3005 C.2     1  UNL1        0.2461
      3 O          58.6459   86.9726    7.3546 O.2     1  UNL1       -0.2729
      4 H          60.7700   89.6111    8.1768 H       1  UNL1        0.1549
      5 C          61.9916   85.6673   11.1101 C.ar    1  UNL1       -0.0022
      6 C          61.0557   86.7372   11.5893 C.ar    1  UNL1       -0.0017
      7 C          60.5179   87.7509   10.6234 C.ar    1  UNL1        0.0144
      8 C          60.9159   87.6948    9.1782 C.ar    1  UNL1        0.0503
      9 C          61.8517   86.6250    8.6990 C.ar    1  UNL1        0.0182
     10 C          62.3896   85.6112    9.6649 C.ar    1  UNL1        0.0700
     11 C          63.3254   84.5414    9.1857 C.3     1  UNL1        0.4184
     12 F          64.2612   83.4716    8.7065 F       1  UNL1       -0.1659
     13 F          63.8765   85.4841    8.1574 F       1  UNL1       -0.1659
     14 F          62.7743   83.5987   10.2140 F       1  UNL1       -0.1659
     15 C          62.5294   84.6535   12.0760 C.3     1  UNL1        0.0992
     16 N          63.2799   85.8052   16.3609 N.3     1  UNL1       -0.2703
     17 C          64.0850   86.4348   15.2630 C.3     1  UNL1        0.0897
     18 C          63.8348   86.0509   13.8347 C.3     1  UNL1        0.0899
     19 N          62.7796   85.0374   13.5043 N.3     1  UNL1       -0.2665
     20 C          61.9745   84.4078   14.6022 C.3     1  UNL1        0.0899
     21 C          62.2246   84.7917   16.0305 C.3     1  UNL1        0.0897
     22 C          62.5433   87.0527   18.5176 C.3     1  UNL1        0.0188
     23 C          63.5300   86.1891   17.7892 C.3     1  UNL1        0.0722
     24 C          58.7053   89.3613    6.3347 C.3     1  UNL1        0.1739
     25 N          59.2322   90.7657    6.3505 N.pl3   1  UNL1       -0.3253
     26 H          59.1278   91.3215    7.1564 H       1  UNL1        0.1473
     27 C          59.9182   91.3231    5.1386 C.ar    1  UNL1        0.0450
     28 C          61.3079   90.8775    4.7921 C.ar    1  UNL1        0.0143
     29 C          61.9939   91.4349    3.5801 C.ar    1  UNL1        0.0013
     30 C          61.2902   92.4379    2.7148 C.ar    1  UNL1        0.0016
     31 C          59.9004   92.8834    3.0614 C.ar    1  UNL1        0.0013
     32 C          59.2144   92.3260    4.2733 C.ar    1  UNL1        0.0143
     33 C          61.9761   92.9952    1.5029 C.ar    1  UNL1        0.0193
     34 C          61.1641   93.4977    0.3461 C.ar    1  UNL1        0.0044
     35 C          61.8501   94.0551   -0.8658 C.ar    1  UNL1        0.0345
     36 C          63.3481   94.1101   -0.9209 C.ar    1  UNL1        0.1342
     37 N          64.1601   93.6077    0.2358 N.ar    1  UNL1       -0.2290
     38 C          63.4741   93.0502    1.4478 C.ar    1  UNL1        0.1003
     39 N          64.0340   94.6675   -2.1328 N.am    1  UNL1       -0.2694
     40 C          64.0536   93.8826   -3.4110 C.2     1  UNL1        0.2267
     41 O          63.3873   92.5404   -3.4772 O.2     1  UNL1       -0.2748
     42 H          64.4714   95.5484   -2.0893 H       1  UNL1        0.1563
     43 C          64.7396   94.4400   -4.6229 C.3     1  UNL1        0.0769
     44 C          65.4036   94.2302   -5.9514 C.3     1  UNL1        0.0096
     45 C          65.2637   95.6154   -5.3935 C.3     1  UNL1        0.0096
@<TRIPOS>BOND
     1    22    23    1
     2    23    16    1
     3    16    17    1
     4    17    18    1
     5    18    19    1
     6    19    15    1
     7    15     5    1
     8     5     6   ar
     9     6     7   ar
    10     7     8   ar
    11     8     1    1
    12     1     2   am
    13     2     3    2
    14     2    24    1
    15    24    25    1
    16    25    27    1
    17    27    28   ar
    18    28    29   ar
    19    29    30   ar
    20    30    33    1
    21    33    34   ar
    22    34    35   ar
    23    35    36   ar
    24    36    39    1
    25    39    40   am
    26    40    41    2
    27    40    43    1
    28    43    44    1
    29    44    45    1
    30    36    37   ar
    31    37    38   ar
    32    30    31   ar
    33    31    32   ar
    34     8     9   ar
    35     9    10   ar
    36    10    11    1
    37    11    12    1
    38    11    13    1
    39    11    14    1
    40    19    20    1
    41    20    21    1
    42    21    16    1
    43    10     5   ar
    44    32    27   ar
    45    38    33   ar
    46    45    43    1
    47     1     4    1
    48    25    26    1
    49    39    42    1
@<TRIPOS>MOLECULE
*****
 45 49 0 0 0
SMALL
GASTEIGER

@<TRIPOS>ATOM
      1 N          63.8514   85.1114   13.3946 N.am    1  UNL1       -0.2825
      2 C          65.0166   84.2201   13.7072 C.2     1  UNL1        0.2461
      3 O          66.2140   84.7737   14.4212 O.2     1  UNL1       -0.2729
      4 H          63.0655   84.7481   12.9260 H       1  UNL1        0.1549
      5 C          63.9479   89.4463   14.5987 C.ar    1  UNL1       -0.0022
      6 C          64.4052   88.3903   15.5609 C.ar    1  UNL1       -0.0017
      7 C          64.3730   86.9454   15.1595 C.ar    1  UNL1        0.0144
      8 C          63.8836   86.5564   13.7960 C.ar    1  UNL1        0.0503
      9 C          63.4263   87.6124   12.8338 C.ar    1  UNL1        0.0182
     10 C          63.4585   89.0574   13.2352 C.ar    1  UNL1        0.0700
     11 C          63.0012   90.1134   12.2730 C.3     1  UNL1        0.4184
     12 F          62.5440   91.1694   11.3109 F       1  UNL1       -0.1659
     13 F          64.4279   90.3985   11.9079 F       1  UNL1       -0.1659
     14 F          61.5746   89.8284   12.6382 F       1  UNL1       -0.1659
     15 C          63.9801   90.8913   15.0001 C.3     1  UNL1        0.0992
     16 N          67.9130   93.0589   15.2900 N.3     1  UNL1       -0.2703
     17 C          66.9434   93.1082   16.4334 C.3     1  UNL1        0.0897
     18 C          65.6324   92.3856   16.3367 C.3     1  UNL1        0.0899
     19 N          65.2911   91.6138   15.0967 N.3     1  UNL1       -0.2665
     20 C          66.2607   91.5645   13.9533 C.3     1  UNL1        0.0899
     21 C          67.5716   92.2870   14.0500 C.3     1  UNL1        0.0897
     22 C          69.4431   94.7960   16.4695 C.3     1  UNL1        0.0188
     23 C          69.2239   93.7814   15.3866 C.3     1  UNL1        0.0722
     24 C          64.9844   82.7752   13.3058 C.3     1  UNL1        0.1739
     25 N          64.3652   82.3731   12.0000 N.pl3   1  UNL1       -0.3253
     26 H          64.5082   81.4655   11.6462 H       1  UNL1        0.1473
     27 C          63.5284   83.3538   11.2333 C.ar    1  UNL1        0.0450
     28 C          62.3164   83.9653   11.8711 C.ar    1  UNL1        0.0143
     29 C          61.4795   84.9461   11.1044 C.ar    1  UNL1        0.0013
     30 C          61.8547   85.3152    9.6997 C.ar    1  UNL1        0.0016
     31 C          63.0668   84.7035    9.0619 C.ar    1  UNL1        0.0013
     32 C          63.9036   83.7228    9.8286 C.ar    1  UNL1        0.0143
     33 C          61.0179   86.2958    8.9330 C.ar    1  UNL1        0.0193
     34 C          60.9828   87.7371    9.3473 C.ar    1  UNL1        0.0044
     35 C          60.1460   88.7178    8.5806 C.ar    1  UNL1        0.0345
     36 C          59.3442   88.2573    7.3995 C.ar    1  UNL1        0.1342
     37 N          59.3792   86.8161    6.9851 N.ar    1  UNL1       -0.2290
     38 C          60.2160   85.8353    7.7519 C.ar    1  UNL1        0.1003
     39 N          58.5073   89.2379    6.6327 N.am    1  UNL1       -0.2694
     40 C          59.1654   90.2542    5.7471 C.2     1  UNL1        0.2267
     41 O          60.6603   90.2898    5.6283 O.2     1  UNL1       -0.2748
     42 H          57.5262   89.2146    6.7107 H       1  UNL1        0.1563
     43 C          58.3286   91.2349    4.9804 C.3     1  UNL1        0.0769
     44 C          58.2220   92.3579    3.9917 C.3     1  UNL1        0.0096
     45 C          56.9856   91.8105    4.6410 C.3     1  UNL1        0.0096
@<TRIPOS>BOND
     1    22    23    1
     2    23    16    1
     3    16    17    1
     4    17    18    1
     5    18    19    1
     6    19    15    1
     7    15     5    1
     8     5     6   ar
     9     6     7   ar
    10     7     8   ar
    11     8     1    1
    12     1     2   am
    13     2     3    2
    14     2    24    1
    15    24    25    1
    16    25    27    1
    17    27    28   ar
    18    28    29   ar
    19    29    30   ar
    20    30    33    1
    21    33    34   ar
    22    34    35   ar
    23    35    36   ar
    24    36    39    1
    25    39    40   am
    26    40    41    2
    27    40    43    1
    28    43    44    1
    29    44    45    1
    30    36    37   ar
    31    37    38   ar
    32    30    31   ar
    33    31    32   ar
    34     8     9   ar
    35     9    10   ar
    36    10    11    1
    37    11    12    1
    38    11    13    1
    39    11    14    1
    40    19    20    1
    41    20    21    1
    42    21    16    1
    43    10     5   ar
    44    32    27   ar
    45    38    33   ar
    46    45    43    1
    47     1     4    1
    48    25    26    1
    49    39    42    1
