@<TRIPOS>MOLECULE
*****
 14 13 0 0 0
SMALL
GASTEIGER

@<TRIPOS>ATOM
      1 CB         62.7283   81.7347   11.7295 C.3     1  GLN1        0.0307
      2 CA         63.4721   83.0363   11.7815 C.3     1  GLN1        0.0883
      3 N          64.9590   83.0588   11.5849 N.3     1  GLN1       -0.3179
      4 H1         65.2958   82.1087   11.4292 H       1  GLN1        0.1191
      5 H2         65.4060   83.4460   12.4160 H       1  GLN1        0.1191
      6 C          62.7290   84.3154   12.0299 C.2     1  GLN1        0.0644
      7 O          62.1168   85.0622   10.8822 O.co2   1  GLN1       -0.5478
      8 OXT        62.5980   84.8476   13.4263 O.co2   1  GLN1       -0.5478
      9 CG         62.6305   80.8773   12.9563 C.3     1  GLN1        0.0866
     10 NE2        62.4130   82.3139   15.1101 N.am    1  GLN1       -0.3288
     11 CD         61.8235   81.3406   14.1327 C.2     1  GLN1        0.2194
     12 OE1        60.4270   80.8306   14.3318 O.2     1  GLN1       -0.2753
     13 HE21       61.8833   82.6180   15.8822 H       1  GLN1        0.1449
     14 HE22       63.3295   82.6487   14.9794 H       1  GLN1        0.1449
@<TRIPOS>UNITY_ATOM_ATTR
7 1
charge -1
@<TRIPOS>BOND
     1    10    11   am
     2    11    12    2
     3    11     9    1
     4     9     1    1
     5     1     2    1
     6     2     3    1
     7     2     6    1
     8     6     7   ar
     9     6     8   ar
    10    10    13    1
    11    10    14    1
    12     3     4    1
    13     3     5    1
@<TRIPOS>MOLECULE
*****
 14 13 0 0 0
SMALL
GASTEIGER

@<TRIPOS>ATOM
      1 CB         65.6232   90.5685   14.4026 C.3     1  GLN1        0.0307
      2 CA         64.1596   90.8896   14.4734 C.3     1  GLN1        0.0883
      3 N          63.4250   91.3173   13.2376 N.3     1  GLN1       -0.3179
      4 H1         64.0700   91.3349   12.4476 H       1  GLN1        0.1191
      5 H2         63.0352   92.2492   13.3791 H       1  GLN1        0.1191
      6 C          63.4307   90.7829   15.7801 C.2     1  GLN1        0.0644
      7 O          63.5476   91.8803   16.7959 O.co2   1  GLN1       -0.5478
      8 OXT        62.5849   89.5787   16.0709 O.co2   1  GLN1       -0.5478
      9 CG         66.6238   91.6688   14.2076 C.3     1  GLN1        0.0866
     10 NE2        66.3816   93.0584   16.3896 N.am    1  GLN1       -0.3288
     11 CD         66.4292   92.9894   14.8918 C.2     1  GLN1        0.2194
     12 OE1        66.2821   94.2411   14.0784 O.2     1  GLN1       -0.2753
     13 HE21       66.2539   93.9251   16.8386 H       1  GLN1        0.1449
     14 HE22       66.4781   92.2369   16.9235 H       1  GLN1        0.1449
@<TRIPOS>UNITY_ATOM_ATTR
7 1
charge -1
@<TRIPOS>BOND
     1    10    11   am
     2    11    12    2
     3    11     9    1
     4     9     1    1
     5     1     2    1
     6     2     3    1
     7     2     6    1
     8     6     7   ar
     9     6     8   ar
    10    10    13    1
    11    10    14    1
    12     3     4    1
    13     3     5    1
@<TRIPOS>MOLECULE
*****
 14 13 0 0 0
SMALL
GASTEIGER

@<TRIPOS>ATOM
      1 CB         64.9849   91.2648   13.6799 C.3     1  GLN1        0.0307
      2 CA         66.0005   92.3444   13.9102 C.3     1  GLN1        0.0883
      3 N          65.9409   93.1766   15.1568 N.3     1  GLN1       -0.3179
      4 H1         65.1535   92.8740   15.7302 H       1  GLN1        0.1191
      5 H2         65.8211   94.1578   14.9051 H       1  GLN1        0.1191
      6 C          67.0757   92.5917   12.8940 C.2     1  GLN1        0.0644
      7 O          66.8949   93.6587   11.8553 O.co2   1  GLN1       -0.5478
      8 OXT        68.3319   91.7721   12.9165 O.co2   1  GLN1       -0.5478
      9 CG         64.7155   90.2480   14.7492 C.3     1  GLN1        0.0866
     10 NE2        62.5930   89.4334   16.0067 N.am    1  GLN1       -0.3288
     11 CD         63.6298   90.4880   15.7560 C.2     1  GLN1        0.2194
     12 OE1        63.5810   91.7826   16.5120 O.2     1  GLN1       -0.2753
     13 HE21       61.8804   89.5910   16.6675 H       1  GLN1        0.1449
     14 HE22       62.6250   88.5837   15.5105 H       1  GLN1        0.1449
@<TRIPOS>UNITY_ATOM_ATTR
7 1
charge -1
@<TRIPOS>BOND
     1    10    11   am
     2    11    12    2
     3    11     9    1
     4     9     1    1
     5     1     2    1
     6     2     3    1
     7     2     6    1
     8     6     7   ar
     9     6     8   ar
    10    10    13    1
    11    10    14    1
    12     3     4    1
    13     3     5    1
@<TRIPOS>MOLECULE
*****
 14 13 0 0 0
SMALL
GASTEIGER

@<TRIPOS>ATOM
      1 CB         65.0836   91.2812   14.2901 C.3     1  GLN1        0.0307
      2 CA         64.1300   90.9152   15.3886 C.3     1  GLN1        0.0883
      3 N          63.8345   91.8970   16.4834 N.3     1  GLN1       -0.3179
      4 H1         64.3641   92.7540   16.3236 H       1  GLN1        0.1191
      5 H2         64.1015   91.4949   17.3819 H       1  GLN1        0.1191
      6 C          63.4719   89.5673   15.3923 C.2     1  GLN1        0.0644
      7 O          62.1932   89.3590   16.1482 O.co2   1  GLN1       -0.5478
      8 OXT        64.0925   88.4275   14.6399 O.co2   1  GLN1       -0.5478
      9 CG         66.5510   91.3974   14.5785 C.3     1  GLN1        0.0866
     10 NE2        68.8074   91.6926   13.3249 N.am    1  GLN1       -0.3288
     11 CD         67.4344   92.1928   13.6638 C.2     1  GLN1        0.2194
     12 OE1        66.9450   93.4885   13.0879 O.2     1  GLN1       -0.2753
     13 HE21       69.3873   92.2147   12.7245 H       1  GLN1        0.1449
     14 HE22       69.1287   90.8422   13.7029 H       1  GLN1        0.1449
@<TRIPOS>UNITY_ATOM_ATTR
7 1
charge -1
@<TRIPOS>BOND
     1    10    11   am
     2    11    12    2
     3    11     9    1
     4     9     1    1
     5     1     2    1
     6     2     3    1
     7     2     6    1
     8     6     7   ar
     9     6     8   ar
    10    10    13    1
    11    10    14    1
    12     3     4    1
    13     3     5    1
@<TRIPOS>MOLECULE
*****
 14 13 0 0 0
SMALL
GASTEIGER

@<TRIPOS>ATOM
      1 CB         64.2696   82.8496   12.5644 C.3     1  GLN1        0.0307
      2 CA         64.3505   84.0291   13.4876 C.3     1  GLN1        0.0883
      3 N          65.6025   84.2813   14.2743 N.3     1  GLN1       -0.3179
      4 H1         66.2898   83.5587   14.0604 H       1  GLN1        0.1191
      5 H2         65.3874   84.2615   15.2712 H       1  GLN1        0.1191
      6 C          63.1794   84.9563   13.6241 C.2     1  GLN1        0.0644
      7 O          62.1525   84.7157   14.6907 O.co2   1  GLN1       -0.5478
      8 OXT        63.0351   86.1243   12.6939 O.co2   1  GLN1       -0.5478
      9 CG         62.9588   82.1523   12.3514 C.3     1  GLN1        0.0866
     10 NE2        62.0918   81.6560   14.7498 N.am    1  GLN1       -0.3288
     11 CD         62.4523   81.1789   13.3741 C.2     1  GLN1        0.2194
     12 OE1        62.3063   79.7283   13.0211 O.2     1  GLN1       -0.2753
     13 HE21       61.7593   81.0171   15.4210 H       1  GLN1        0.1449
     14 HE22       62.1876   82.6081   14.9814 H       1  GLN1        0.1449
@<TRIPOS>UNITY_ATOM_ATTR
7 1
charge -1
@<TRIPOS>BOND
     1    10    11   am
     2    11    12    2
     3    11     9    1
     4     9     1    1
     5     1     2    1
     6     2     3    1
     7     2     6    1
     8     6     7   ar
     9     6     8   ar
    10    10    13    1
    11    10    14    1
    12     3     4    1
    13     3     5    1
@<TRIPOS>MOLECULE
*****
 14 13 0 0 0
SMALL
GASTEIGER

@<TRIPOS>ATOM
      1 CB         65.2941   92.9083   10.8618 C.3     1  GLN1        0.0307
      2 CA         66.0128   94.1626   10.4610 C.3     1  GLN1        0.0883
      3 N          65.5006   95.4977   10.9138 N.3     1  GLN1       -0.3179
      4 H1         64.6630   95.3661   11.4807 H       1  GLN1        0.1191
      5 H2         65.2738   96.0688   10.0997 H       1  GLN1        0.1191
      6 C          67.2435   94.0816    9.6074 C.2     1  GLN1        0.0644
      7 O          67.2835   94.7805    8.2808 O.co2   1  GLN1       -0.5478
      8 OXT        68.4343   93.3015   10.0804 O.co2   1  GLN1       -0.5478
      9 CG         65.4861   92.3408   12.2369 C.3     1  GLN1        0.0866
     10 NE2        67.8931   92.2714   13.2125 N.am    1  GLN1       -0.3288
     11 CD         66.5374   92.9097   13.1430 C.2     1  GLN1        0.2194
     12 OE1        66.2331   94.1169   13.9796 O.2     1  GLN1       -0.2753
     13 HE21       68.5831   92.6448   13.8072 H       1  GLN1        0.1449
     14 HE22       68.0929   91.4791   12.6633 H       1  GLN1        0.1449
@<TRIPOS>UNITY_ATOM_ATTR
7 1
charge -1
@<TRIPOS>BOND
     1    10    11   am
     2    11    12    2
     3    11     9    1
     4     9     1    1
     5     1     2    1
     6     2     3    1
     7     2     6    1
     8     6     7   ar
     9     6     8   ar
    10    10    13    1
    11    10    14    1
    12     3     4    1
    13     3     5    1
@<TRIPOS>MOLECULE
*****
 14 13 0 0 0
SMALL
GASTEIGER

@<TRIPOS>ATOM
      1 CB         65.1494   91.3745   14.3527 C.3     1  GLN1        0.0307
      2 CA         64.1658   90.8395   15.3509 C.3     1  GLN1        0.0883
      3 N          63.6724   91.7177   16.4624 N.3     1  GLN1       -0.3179
      4 H1         64.1062   92.6378   16.3868 H       1  GLN1        0.1191
      5 H2         63.9166   91.2994   17.3600 H       1  GLN1        0.1191
      6 C          63.6755   89.4265   15.2375 C.2     1  GLN1        0.0644
      7 O          63.8351   88.6785   13.9471 O.co2   1  GLN1       -0.5478
      8 OXT        63.0255   88.7614   16.4145 O.co2   1  GLN1       -0.5478
      9 CG         66.6219   91.2564   14.6133 C.3     1  GLN1        0.0866
     10 NE2        66.5376   93.1055   16.4364 N.am    1  GLN1       -0.3288
     11 CD         67.3193   92.2837   15.4548 C.2     1  GLN1        0.2194
     12 OE1        68.7986   92.4892   15.3147 O.2     1  GLN1       -0.2753
     13 HE21       66.9954   93.7798   16.9887 H       1  GLN1        0.1449
     14 HE22       65.5667   92.9706   16.5283 H       1  GLN1        0.1449
@<TRIPOS>UNITY_ATOM_ATTR
7 1
charge -1
@<TRIPOS>BOND
     1    10    11   am
     2    11    12    2
     3    11     9    1
     4     9     1    1
     5     1     2    1
     6     2     3    1
     7     2     6    1
     8     6     7   ar
     9     6     8   ar
    10    10    13    1
    11    10    14    1
    12     3     4    1
    13     3     5    1
@<TRIPOS>MOLECULE
*****
 14 13 0 0 0
SMALL
GASTEIGER

@<TRIPOS>ATOM
      1 CB         63.6758   82.6984   12.9557 C.3     1  GLN1        0.0307
      2 CA         62.7608   82.1742   14.0226 C.3     1  GLN1        0.0883
      3 N          62.7201   82.8369   15.3677 N.3     1  GLN1       -0.3179
      4 H1         63.3731   83.6203   15.3806 H       1  GLN1        0.1191
      5 H2         62.9832   82.1630   16.0868 H       1  GLN1        0.1191
      6 C          61.8866   80.9875   13.7444 C.2     1  GLN1        0.0644
      7 O          62.3829   79.8808   12.8619 O.co2   1  GLN1       -0.5478
      8 OXT        60.5160   80.9075   14.3487 O.co2   1  GLN1       -0.5478
      9 CG         63.1951   83.7586   12.0098 C.3     1  GLN1        0.0866
     10 NE2        63.4384   85.6748   13.7473 N.am    1  GLN1       -0.3288
     11 CD         62.7671   85.0960   12.5371 C.2     1  GLN1        0.2194
     12 OE1        61.6680   85.8547   11.8542 O.2     1  GLN1       -0.2753
     13 HE21       63.1575   86.5527   14.0934 H       1  GLN1        0.1449
     14 HE22       64.1597   85.1769   14.1955 H       1  GLN1        0.1449
@<TRIPOS>UNITY_ATOM_ATTR
7 1
charge -1
@<TRIPOS>BOND
     1    10    11   am
     2    11    12    2
     3    11     9    1
     4     9     1    1
     5     1     2    1
     6     2     3    1
     7     2     6    1
     8     6     7   ar
     9     6     8   ar
    10    10    13    1
    11    10    14    1
    12     3     4    1
    13     3     5    1
@<TRIPOS>MOLECULE
*****
 14 13 0 0 0
SMALL
GASTEIGER

@<TRIPOS>ATOM
      1 CB         65.9696   91.3640   13.9810 C.3     1  GLN1        0.0307
      2 CA         66.1004   92.7872   13.5253 C.3     1  GLN1        0.0883
      3 N          66.3120   93.8801   14.5306 N.3     1  GLN1       -0.3179
      4 H1         66.3415   93.4789   15.4679 H       1  GLN1        0.1191
      5 H2         65.5449   94.5497   14.4714 H       1  GLN1        0.1191
      6 C          66.0195   93.1173   12.0643 C.2     1  GLN1        0.0644
      7 O          65.0297   92.4077   11.1887 O.co2   1  GLN1       -0.5478
      8 OXT        66.9285   94.1571   11.4789 O.co2   1  GLN1       -0.5478
      9 CG         64.8765   90.9788   14.9332 C.3     1  GLN1        0.0866
     10 NE2        63.1404   90.8815   13.0028 N.am    1  GLN1       -0.3288
     11 CD         63.5438   90.5367   14.4059 C.2     1  GLN1        0.2194
     12 OE1        62.6143   89.7497   15.2815 O.2     1  GLN1       -0.2753
     13 HE21       62.2657   90.5913   12.6567 H       1  GLN1        0.1449
     14 HE22       63.7505   91.3980   12.4281 H       1  GLN1        0.1449
@<TRIPOS>UNITY_ATOM_ATTR
7 1
charge -1
@<TRIPOS>BOND
     1    10    11   am
     2    11    12    2
     3    11     9    1
     4     9     1    1
     5     1     2    1
     6     2     3    1
     7     2     6    1
     8     6     7   ar
     9     6     8   ar
    10    10    13    1
    11    10    14    1
    12     3     4    1
    13     3     5    1
