@<TRIPOS>MOLECULE
*****
 30 34 0 0 0
SMALL
GASTEIGER

@<TRIPOS>ATOM
      1 C          62.8446   88.0933   11.2239 C.3     1  UNL1        0.0004
      2 C          63.4830   89.1851   12.0303 C.3     1  UNL1        0.0052
      3 C          62.9368   89.4823   10.6652 C.3     1  UNL1        0.0028
      4 C          63.0290   90.8713   10.1066 C.3     1  UNL1        0.0293
      5 C          63.6674   91.9631   10.9130 C.3     1  UNL1        0.1109
      6 O          63.7595   93.3522   10.3543 O.3     1  UNL1       -0.3844
      7 C          64.2136   91.6660   12.2780 C.3     1  UNL1        0.0349
      8 C          64.1214   90.2770   12.8366 C.3     1  UNL1        0.0417
      9 C          64.6676   89.9798   14.2017 C.2     1  UNL1        0.0743
     10 N          65.3060   91.0717   15.0081 N.2     1  UNL1       -0.0953
     11 O          65.3982   92.4608   14.4494 O.2     1  UNL1       -0.4092
     12 C          64.5754   88.5908   14.7604 C.3     1  UNL1        0.0446
     13 C          63.9370   87.4990   13.9540 C.3     1  UNL1        0.0063
     14 C          63.3908   87.7961   12.5890 C.3     1  UNL1        0.0007
     15 C          62.7524   86.7042   11.7826 C.3     1  UNL1        0.0003
     16 C          62.6602   85.3152   12.3413 C.3     1  UNL1        0.0040
     17 C          63.2064   85.0180   13.7064 C.3     1  UNL1        0.0190
     18 C          62.5989   83.8304   13.0204 C.3     1  UNL1        0.0044
     19 C          63.2584   83.7548   14.5134 C.2     1  UNL1       -0.0255
     20 C          63.9290   84.0659   15.8186 C.2     1  UNL1       -0.0303
     21 C          64.2914   85.5215   15.8181 C.3     1  UNL1        0.0260
     22 C          63.8448   86.1099   14.5127 C.3     1  UNL1        0.0084
     23 H          63.3624   93.3718    9.4695 H       1  UNL1        0.2103
     24 H          65.7970   93.1429   14.9531 H       1  UNL1        0.3278
     25 C          62.7323   82.4155   14.0898 C.ar    1  UNL1        0.0149
     26 C          61.3493   81.9927   14.4881 C.ar    1  UNL1        0.0028
     27 C          60.8232   80.6534   14.0644 C.ar    1  UNL1        0.0207
     28 C          61.6802   79.7369   13.2424 C.ar    1  UNL1        0.0989
     29 N          63.0631   80.1596   12.8441 N.ar    1  UNL1       -0.2423
     30 C          63.5892   81.4990   13.2678 C.ar    1  UNL1        0.0985
@<TRIPOS>BOND
     1     2     1    1
     2     2     3    1
     3     3     4    1
     4     4     5    1
     5     5     6    1
     6     5     7    1
     7     8     7    1
     8     8     9    1
     9     9    10    2
    10    10    11    1
    11     9    12    1
    12    13    12    1
    13    13    14    1
    14    14    15    1
    15    15    16    1
    16    16    17    1
    17    17    18    1
    18    17    19    1
    19    19    25    1
    20    25    26   ar
    21    26    27   ar
    22    27    28   ar
    23    28    29   ar
    24    29    30   ar
    25    19    20    2
    26    20    21    1
    27    22    21    1
    28     8     2    1
    29    22    13    1
    30    14     2    1
    31    22    17    1
    32    30    25   ar
    33     6    23    1
    34    11    24    1
@<TRIPOS>MOLECULE
*****
 30 34 0 0 0
SMALL
GASTEIGER

@<TRIPOS>ATOM
      1 C          62.6066   88.7827   11.6368 C.3     1  UNL1        0.0004
      2 C          62.8198   87.3556   12.0468 C.3     1  UNL1        0.0052
      3 C          63.4110   88.4667   12.8628 C.3     1  UNL1        0.0028
      4 C          64.2153   88.1508   14.0889 C.3     1  UNL1        0.0293
      5 C          64.4284   86.7238   14.4989 C.3     1  UNL1        0.1109
      6 O          65.2328   86.4079   15.7250 O.3     1  UNL1       -0.3844
      7 C          63.8373   85.6127   13.6829 C.3     1  UNL1        0.0349
      8 C          63.0329   85.9286   12.4569 C.3     1  UNL1        0.0417
      9 C          62.4417   84.8174   11.6408 C.2     1  UNL1        0.0743
     10 N          62.6549   83.3904   12.0508 N.2     1  UNL1       -0.0953
     11 O          63.4592   83.0745   13.2769 O.2     1  UNL1       -0.4092
     12 C          61.6374   85.1334   10.4147 C.3     1  UNL1        0.0446
     13 C          61.4243   86.5604   10.0047 C.3     1  UNL1        0.0063
     14 C          62.0154   87.6715   10.8207 C.3     1  UNL1        0.0007
     15 C          61.8023   89.0986   10.4107 C.3     1  UNL1        0.0003
     16 C          60.9980   89.4145    9.1846 C.3     1  UNL1        0.0040
     17 C          60.4067   88.3033    8.3686 C.3     1  UNL1        0.0190
     18 C          60.1106   89.6746    7.8376 C.3     1  UNL1        0.0044
     19 C          59.5747   88.3077    7.1206 C.2     1  UNL1       -0.0255
     20 C          59.2735   86.8833    6.7593 C.2     1  UNL1       -0.0303
     21 C          59.9195   85.9987    7.7841 C.3     1  UNL1        0.0260
     22 C          60.6199   86.8763    8.7786 C.3     1  UNL1        0.0084
     23 H          65.5392   87.2332   16.1322 H       1  UNL1        0.2103
     24 H          63.5924   82.1831   13.5331 H       1  UNL1        0.3278
     25 C          59.1229   89.5230    6.3663 C.ar    1  UNL1        0.0149
     26 C          60.1272   90.3806    5.6550 C.ar    1  UNL1        0.0028
     27 C          59.6754   91.5959    4.9006 C.ar    1  UNL1        0.0207
     28 C          58.2193   91.9535    4.8576 C.ar    1  UNL1        0.0989
     29 N          57.2150   91.0960    5.5689 N.ar    1  UNL1       -0.2423
     30 C          57.6668   89.8807    6.3232 C.ar    1  UNL1        0.0985
@<TRIPOS>BOND
     1     2     1    1
     2     2     3    1
     3     3     4    1
     4     4     5    1
     5     5     6    1
     6     5     7    1
     7     8     7    1
     8     8     9    1
     9     9    10    2
    10    10    11    1
    11     9    12    1
    12    13    12    1
    13    13    14    1
    14    14    15    1
    15    15    16    1
    16    16    17    1
    17    17    18    1
    18    17    19    1
    19    19    25    1
    20    25    26   ar
    21    26    27   ar
    22    27    28   ar
    23    28    29   ar
    24    29    30   ar
    25    19    20    2
    26    20    21    1
    27    22    21    1
    28     8     2    1
    29    22    13    1
    30    14     2    1
    31    22    17    1
    32    30    25   ar
    33     6    23    1
    34    11    24    1
@<TRIPOS>MOLECULE
*****
 30 34 0 0 0
SMALL
GASTEIGER

@<TRIPOS>ATOM
      1 C          64.6421   88.6355   14.5078 C.3     1  UNL1        0.0004
      2 C          64.4410   89.7480   13.5219 C.3     1  UNL1        0.0052
      3 C          65.1314   90.0173   14.8261 C.3     1  UNL1        0.0028
      4 C          65.6206   91.3990   15.1444 C.3     1  UNL1        0.0293
      5 C          65.4195   92.5115   14.1586 C.3     1  UNL1        0.1109
      6 O          65.9088   93.8933   14.4770 O.3     1  UNL1       -0.3844
      7 C          64.7291   92.2423   12.8544 C.3     1  UNL1        0.0349
      8 C          64.2399   90.8606   12.5361 C.3     1  UNL1        0.0417
      9 C          63.5494   90.5913   11.2319 C.2     1  UNL1        0.0743
     10 N          63.3483   91.7038   10.2461 N.2     1  UNL1       -0.0953
     11 O          63.8376   93.0856   10.5645 O.2     1  UNL1       -0.4092
     12 C          63.0602   89.2095   10.9136 C.3     1  UNL1        0.0446
     13 C          63.2613   88.0970   11.8994 C.3     1  UNL1        0.0063
     14 C          63.9517   88.3662   13.2036 C.3     1  UNL1        0.0007
     15 C          64.1528   87.2537   14.1894 C.3     1  UNL1        0.0003
     16 C          63.6636   85.8720   13.8711 C.3     1  UNL1        0.0040
     17 C          62.9732   85.6027   12.5669 C.3     1  UNL1        0.0190
     18 C          63.1020   84.3967   13.4494 C.3     1  UNL1        0.0044
     19 C          62.3876   84.3524   11.9806 C.2     1  UNL1       -0.0255
     20 C          61.8245   84.6922   10.6325 C.2     1  UNL1       -0.0303
     21 C          62.0621   86.1525   10.3856 C.3     1  UNL1        0.0260
     22 C          62.7720   86.7152   11.5811 C.3     1  UNL1        0.0084
     23 H          66.3281   93.8943   15.3517 H       1  UNL1        0.2103
     24 H          63.7119   93.7806    9.9487 H       1  UNL1        0.3278
     25 C          62.3684   82.9997   12.6287 C.ar    1  UNL1        0.0149
     26 C          62.8581   81.7995   11.8741 C.ar    1  UNL1        0.0028
     27 C          62.8389   80.4468   12.5222 C.ar    1  UNL1        0.0207
     28 C          62.3299   80.2945   13.9250 C.ar    1  UNL1        0.0989
     29 N          61.8402   81.4948   14.6796 N.ar    1  UNL1       -0.2423
     30 C          61.8594   82.8474   14.0315 C.ar    1  UNL1        0.0985
@<TRIPOS>BOND
     1     2     1    1
     2     2     3    1
     3     3     4    1
     4     4     5    1
     5     5     6    1
     6     5     7    1
     7     8     7    1
     8     8     9    1
     9     9    10    2
    10    10    11    1
    11     9    12    1
    12    13    12    1
    13    13    14    1
    14    14    15    1
    15    15    16    1
    16    16    17    1
    17    17    18    1
    18    17    19    1
    19    19    25    1
    20    25    26   ar
    21    26    27   ar
    22    27    28   ar
    23    28    29   ar
    24    29    30   ar
    25    19    20    2
    26    20    21    1
    27    22    21    1
    28     8     2    1
    29    22    13    1
    30    14     2    1
    31    22    17    1
    32    30    25   ar
    33     6    23    1
    34    11    24    1
@<TRIPOS>MOLECULE
*****
 30 34 0 0 0
SMALL
GASTEIGER

@<TRIPOS>ATOM
      1 C          62.5037   87.7779   10.8282 C.3     1  UNL1        0.0004
      2 C          63.1381   88.9167   11.5703 C.3     1  UNL1        0.0052
      3 C          62.5265   89.1491   10.2206 C.3     1  UNL1        0.0028
      4 C          62.5493   90.5203    9.6129 C.3     1  UNL1        0.0293
      5 C          63.1837   91.6591   10.3551 C.3     1  UNL1        0.1109
      6 O          63.2064   93.0303    9.7474 O.3     1  UNL1       -0.3844
      7 C          63.7952   91.4267   11.7049 C.3     1  UNL1        0.0349
      8 C          63.7724   90.0555   12.3125 C.3     1  UNL1        0.0417
      9 C          64.3840   89.8230   13.6623 C.2     1  UNL1        0.0743
     10 N          65.0183   90.9618   14.4045 N.2     1  UNL1       -0.0953
     11 O          65.0411   92.3330   13.7968 O.2     1  UNL1       -0.4092
     12 C          64.3612   88.4518   14.2700 C.3     1  UNL1        0.0446
     13 C          63.7269   87.3130   13.5278 C.3     1  UNL1        0.0063
     14 C          63.1153   87.5454   12.1780 C.3     1  UNL1        0.0007
     15 C          62.4810   86.4067   11.4359 C.3     1  UNL1        0.0003
     16 C          62.4582   85.0355   12.0435 C.3     1  UNL1        0.0040
     17 C          63.0697   84.8030   13.3934 C.3     1  UNL1        0.0190
     18 C          62.4744   83.5737   12.7733 C.3     1  UNL1        0.0044
     19 C          63.1970   83.5706   14.2388 C.2     1  UNL1       -0.0255
     20 C          63.9100   83.9476   15.5035 C.2     1  UNL1       -0.0303
     21 C          64.2234   85.4131   15.4396 C.3     1  UNL1        0.0260
     22 C          63.7041   85.9418   14.1355 C.3     1  UNL1        0.0084
     23 H          62.7728   93.0069    8.8801 H       1  UNL1        0.2103
     24 H          65.4373   93.0444   14.2604 H       1  UNL1        0.3278
     25 C          62.6988   82.2014   13.8822 C.ar    1  UNL1        0.0149
     26 C          63.4890   81.3359   12.9461 C.ar    1  UNL1        0.0028
     27 C          62.9907   79.9667   12.5896 C.ar    1  UNL1        0.0207
     28 C          61.7022   79.4630   13.1693 C.ar    1  UNL1        0.0989
     29 N          60.9119   80.3286   14.1054 N.ar    1  UNL1       -0.2423
     30 C          61.4103   81.6977   14.4619 C.ar    1  UNL1        0.0985
@<TRIPOS>BOND
     1     2     1    1
     2     2     3    1
     3     3     4    1
     4     4     5    1
     5     5     6    1
     6     5     7    1
     7     8     7    1
     8     8     9    1
     9     9    10    2
    10    10    11    1
    11     9    12    1
    12    13    12    1
    13    13    14    1
    14    14    15    1
    15    15    16    1
    16    16    17    1
    17    17    18    1
    18    17    19    1
    19    19    25    1
    20    25    26   ar
    21    26    27   ar
    22    27    28   ar
    23    28    29   ar
    24    29    30   ar
    25    19    20    2
    26    20    21    1
    27    22    21    1
    28     8     2    1
    29    22    13    1
    30    14     2    1
    31    22    17    1
    32    30    25   ar
    33     6    23    1
    34    11    24    1
@<TRIPOS>MOLECULE
*****
 30 34 0 0 0
SMALL
GASTEIGER

@<TRIPOS>ATOM
      1 C          62.7426   93.5719   -0.7504 C.3     1  UNL1        0.0004
      2 C          61.2494   93.4302   -0.7696 C.3     1  UNL1        0.0052
      3 C          62.0015   93.2693    0.5181 C.3     1  UNL1        0.0028
      4 C          61.2605   92.9667    1.7867 C.3     1  UNL1        0.0293
      5 C          59.7673   92.8250    1.7674 C.3     1  UNL1        0.1109
      6 O          59.0263   92.5224    3.0361 O.3     1  UNL1       -0.3844
      7 C          59.0152   92.9859    0.4797 C.3     1  UNL1        0.0349
      8 C          59.7562   93.2885   -0.7889 C.3     1  UNL1        0.0417
      9 C          59.0041   93.4494   -2.0767 C.2     1  UNL1        0.0743
     10 N          57.5110   93.3077   -2.0960 N.2     1  UNL1       -0.0953
     11 O          56.7699   93.0051   -0.8273 O.2     1  UNL1       -0.4092
     12 C          59.7452   93.7520   -3.3453 C.3     1  UNL1        0.0446
     13 C          61.2383   93.8936   -3.3260 C.3     1  UNL1        0.0063
     14 C          61.9905   93.7328   -2.0383 C.3     1  UNL1        0.0007
     15 C          63.4836   93.8745   -2.0191 C.3     1  UNL1        0.0003
     16 C          64.2247   94.1770   -3.2876 C.3     1  UNL1        0.0040
     17 C          63.4726   94.3379   -4.5755 C.3     1  UNL1        0.0190
     18 C          64.9569   94.5068   -4.7105 C.3     1  UNL1        0.0044
     19 C          63.9279   94.6362   -5.9731 C.2     1  UNL1       -0.0255
     20 C          62.7161   94.6789   -6.8562 C.2     1  UNL1       -0.0303
     21 C          61.5119   94.4070   -6.0042 C.3     1  UNL1        0.0260
     22 C          61.9794   94.1963   -4.5947 C.3     1  UNL1        0.0084
     23 H          59.6569   92.4504    3.7696 H       1  UNL1        0.2103
     24 H          55.8372   92.9166   -0.8393 H       1  UNL1        0.3278
     25 C          65.3460   94.8537   -6.4110 C.ar    1  UNL1        0.0149
     26 C          65.9501   96.2250   -6.3430 C.ar    1  UNL1        0.0028
     27 C          67.3682   96.4423   -6.7809 C.ar    1  UNL1        0.0207
     28 C          68.1822   95.2884   -7.2868 C.ar    1  UNL1        0.0989
     29 N          67.5781   93.9171   -7.3547 N.ar    1  UNL1       -0.2423
     30 C          66.1600   93.6998   -6.9168 C.ar    1  UNL1        0.0985
@<TRIPOS>BOND
     1     2     1    1
     2     2     3    1
     3     3     4    1
     4     4     5    1
     5     5     6    1
     6     5     7    1
     7     8     7    1
     8     8     9    1
     9     9    10    2
    10    10    11    1
    11     9    12    1
    12    13    12    1
    13    13    14    1
    14    14    15    1
    15    15    16    1
    16    16    17    1
    17    17    18    1
    18    17    19    1
    19    19    25    1
    20    25    26   ar
    21    26    27   ar
    22    27    28   ar
    23    28    29   ar
    24    29    30   ar
    25    19    20    2
    26    20    21    1
    27    22    21    1
    28     8     2    1
    29    22    13    1
    30    14     2    1
    31    22    17    1
    32    30    25   ar
    33     6    23    1
    34    11    24    1
@<TRIPOS>MOLECULE
*****
 30 34 0 0 0
SMALL
GASTEIGER

@<TRIPOS>ATOM
      1 C          62.0078   93.8492   -2.2182 C.3     1  UNL1        0.0004
      2 C          62.0568   93.4438   -0.7749 C.3     1  UNL1        0.0052
      3 C          63.3167   93.8404   -1.4856 C.3     1  UNL1        0.0028
      4 C          64.6256   93.8316   -0.7531 C.3     1  UNL1        0.0293
      5 C          64.6745   93.4263    0.6903 C.3     1  UNL1        0.1109
      6 O          65.9835   93.4175    1.4229 O.3     1  UNL1       -0.3844
      7 C          63.4146   93.0297    1.4011 C.3     1  UNL1        0.0349
      8 C          62.1057   93.0384    0.6685 C.3     1  UNL1        0.0417
      9 C          60.8457   92.6418    1.3793 C.2     1  UNL1        0.0743
     10 N          60.8947   92.2365    2.8226 N.2     1  UNL1       -0.0953
     11 O          62.2036   92.2277    3.5552 O.2     1  UNL1       -0.4092
     12 C          59.5368   92.6506    0.6467 C.3     1  UNL1        0.0446
     13 C          59.4879   93.0560   -0.7967 C.3     1  UNL1        0.0063
     14 C          60.7478   93.4526   -1.5074 C.3     1  UNL1        0.0007
     15 C          60.6988   93.8579   -2.9508 C.3     1  UNL1        0.0003
     16 C          59.3900   93.8667   -3.6834 C.3     1  UNL1        0.0040
     17 C          58.1299   93.4701   -2.9726 C.3     1  UNL1        0.0190
     18 C          57.9263   93.8498   -4.4094 C.3     1  UNL1        0.0044
     19 C          56.7044   93.3824   -3.4306 C.2     1  UNL1       -0.0255
     20 C          55.8722   92.9228   -2.2703 C.2     1  UNL1       -0.0303
     21 C          56.7836   92.7265   -1.0952 C.3     1  UNL1        0.0260
     22 C          58.1789   93.0647   -1.5292 C.3     1  UNL1        0.0084
     23 H          66.6919   93.6979    0.8225 H       1  UNL1        0.2103
     24 H          62.2342   91.9745    4.4568 H       1  UNL1        0.3278
     25 C          56.1994   93.6987   -4.8072 C.ar    1  UNL1        0.0149
     26 C          56.1780   92.6322   -5.8617 C.ar    1  UNL1        0.0028
     27 C          55.6730   92.9486   -7.2383 C.ar    1  UNL1        0.0207
     28 C          55.1895   94.3315   -7.5603 C.ar    1  UNL1        0.0989
     29 N          55.2109   95.3980   -6.5058 N.ar    1  UNL1       -0.2423
     30 C          55.7159   95.0816   -5.1292 C.ar    1  UNL1        0.0985
@<TRIPOS>BOND
     1     2     1    1
     2     2     3    1
     3     3     4    1
     4     4     5    1
     5     5     6    1
     6     5     7    1
     7     8     7    1
     8     8     9    1
     9     9    10    2
    10    10    11    1
    11     9    12    1
    12    13    12    1
    13    13    14    1
    14    14    15    1
    15    15    16    1
    16    16    17    1
    17    17    18    1
    18    17    19    1
    19    19    25    1
    20    25    26   ar
    21    26    27   ar
    22    27    28   ar
    23    28    29   ar
    24    29    30   ar
    25    19    20    2
    26    20    21    1
    27    22    21    1
    28     8     2    1
    29    22    13    1
    30    14     2    1
    31    22    17    1
    32    30    25   ar
    33     6    23    1
    34    11    24    1
@<TRIPOS>MOLECULE
*****
 30 34 0 0 0
SMALL
GASTEIGER

@<TRIPOS>ATOM
      1 C          64.3212   92.6959   10.3997 C.3     1  UNL1        0.0004
      2 C          65.0138   92.9008   11.7144 C.3     1  UNL1        0.0052
      3 C          65.0399   93.9831   10.6763 C.3     1  UNL1        0.0028
      4 C          65.7585   95.2704   10.9529 C.3     1  UNL1        0.0293
      5 C          66.4510   95.4752   12.2675 C.3     1  UNL1        0.1109
      6 O          67.1697   96.7626   12.5441 O.3     1  UNL1       -0.3844
      7 C          66.4250   94.3929   13.3057 C.3     1  UNL1        0.0349
      8 C          65.7063   93.1056   13.0291 C.3     1  UNL1        0.0417
      9 C          65.6802   92.0232   14.0672 C.2     1  UNL1        0.0743
     10 N          66.3728   92.2280   15.3819 N.2     1  UNL1       -0.0953
     11 O          67.0915   93.5153   15.6585 O.2     1  UNL1       -0.4092
     12 C          64.9616   90.7359   13.7907 C.3     1  UNL1        0.0446
     13 C          64.2691   90.5311   12.4760 C.3     1  UNL1        0.0063
     14 C          64.2951   91.6134   11.4379 C.3     1  UNL1        0.0007
     15 C          63.6026   91.4086   10.1232 C.3     1  UNL1        0.0003
     16 C          62.8839   90.1213    9.8466 C.3     1  UNL1        0.0040
     17 C          62.8578   89.0389   10.8848 C.3     1  UNL1        0.0190
     18 C          62.1241   88.6922    9.6232 C.3     1  UNL1        0.0044
     19 C          62.2349   87.6745   10.8967 C.2     1  UNL1       -0.0255
     20 C          62.5425   87.0360   12.2187 C.2     1  UNL1       -0.0303
     21 C          63.3555   88.0059   13.0238 C.3     1  UNL1        0.0260
     22 C          63.5504   89.2437   12.1994 C.3     1  UNL1        0.0084
     23 H          67.0900   97.3489   11.7755 H       1  UNL1        0.2103
     24 H          67.5241   93.6433   16.4797 H       1  UNL1        0.3278
     25 C          61.4434   87.0568    9.7822 C.ar    1  UNL1        0.0149
     26 C          62.1077   86.1135    8.8236 C.ar    1  UNL1        0.0028
     27 C          61.3160   85.4959    7.7092 C.ar    1  UNL1        0.0207
     28 C          59.8601   85.8215    7.5534 C.ar    1  UNL1        0.0989
     29 N          59.1958   86.7648    8.5120 N.ar    1  UNL1       -0.2423
     30 C          59.9875   87.3824    9.6264 C.ar    1  UNL1        0.0985
@<TRIPOS>BOND
     1     2     1    1
     2     2     3    1
     3     3     4    1
     4     4     5    1
     5     5     6    1
     6     5     7    1
     7     8     7    1
     8     8     9    1
     9     9    10    2
    10    10    11    1
    11     9    12    1
    12    13    12    1
    13    13    14    1
    14    14    15    1
    15    15    16    1
    16    16    17    1
    17    17    18    1
    18    17    19    1
    19    19    25    1
    20    25    26   ar
    21    26    27   ar
    22    27    28   ar
    23    28    29   ar
    24    29    30   ar
    25    19    20    2
    26    20    21    1
    27    22    21    1
    28     8     2    1
    29    22    13    1
    30    14     2    1
    31    22    17    1
    32    30    25   ar
    33     6    23    1
    34    11    24    1
@<TRIPOS>MOLECULE
*****
 30 34 0 0 0
SMALL
GASTEIGER

@<TRIPOS>ATOM
      1 C          60.7588   96.3927    0.2549 C.3     1  UNL1        0.0004
      2 C          61.5333   95.2334    0.8082 C.3     1  UNL1        0.0052
      3 C          62.0845   96.6242    0.9173 C.3     1  UNL1        0.0028
      4 C          63.4102   96.8557    1.5797 C.3     1  UNL1        0.0293
      5 C          64.1847   95.6964    2.1331 C.3     1  UNL1        0.1109
      6 O          65.5105   95.9279    2.7955 O.3     1  UNL1       -0.3844
      7 C          63.6335   94.3056    2.0240 C.3     1  UNL1        0.0349
      8 C          62.3078   94.0742    1.3616 C.3     1  UNL1        0.0417
      9 C          61.7566   92.6834    1.2524 C.2     1  UNL1        0.0743
     10 N          62.5311   91.5241    1.8058 N.2     1  UNL1       -0.0953
     11 O          63.8569   91.7556    2.4682 O.2     1  UNL1       -0.4092
     12 C          60.4309   92.4519    0.5900 C.3     1  UNL1        0.0446
     13 C          59.6563   93.6112    0.0367 C.3     1  UNL1        0.0063
     14 C          60.2075   95.0019    0.1458 C.3     1  UNL1        0.0007
     15 C          59.4330   96.1612   -0.4076 C.3     1  UNL1        0.0003
     16 C          58.1073   95.9297   -1.0700 C.3     1  UNL1        0.0040
     17 C          57.5560   94.5389   -1.1791 C.3     1  UNL1        0.0190
     18 C          56.6725   95.5940   -1.7760 C.3     1  UNL1        0.0044
     19 C          56.2862   94.0064   -1.7737 C.2     1  UNL1       -0.0255
     20 C          56.2758   92.5180   -1.5879 C.2     1  UNL1       -0.0303
     21 C          57.5393   92.1307   -0.8784 C.3     1  UNL1        0.0260
     22 C          58.3306   93.3796   -0.6258 C.3     1  UNL1        0.0084
     23 H          65.7177   96.8755    2.7819 H       1  UNL1        0.2103
     24 H          64.3407   91.0315    2.8139 H       1  UNL1        0.3278
     25 C          55.2146   94.8194   -2.4377 C.ar    1  UNL1        0.0149
     26 C          54.0803   95.3711   -1.6260 C.ar    1  UNL1        0.0028
     27 C          53.0088   96.1842   -2.2900 C.ar    1  UNL1        0.0207
     28 C          53.0716   96.4455   -3.7657 C.ar    1  UNL1        0.0989
     29 N          54.2060   95.8938   -4.5774 N.ar    1  UNL1       -0.2423
     30 C          55.2775   95.0808   -3.9134 C.ar    1  UNL1        0.0985
@<TRIPOS>BOND
     1     2     1    1
     2     2     3    1
     3     3     4    1
     4     4     5    1
     5     5     6    1
     6     5     7    1
     7     8     7    1
     8     8     9    1
     9     9    10    2
    10    10    11    1
    11     9    12    1
    12    13    12    1
    13    13    14    1
    14    14    15    1
    15    15    16    1
    16    16    17    1
    17    17    18    1
    18    17    19    1
    19    19    25    1
    20    25    26   ar
    21    26    27   ar
    22    27    28   ar
    23    28    29   ar
    24    29    30   ar
    25    19    20    2
    26    20    21    1
    27    22    21    1
    28     8     2    1
    29    22    13    1
    30    14     2    1
    31    22    17    1
    32    30    25   ar
    33     6    23    1
    34    11    24    1
@<TRIPOS>MOLECULE
*****
 30 34 0 0 0
SMALL
GASTEIGER

@<TRIPOS>ATOM
      1 C          63.7153   84.4549   11.6071 C.3     1  UNL1        0.0004
      2 C          63.2606   83.1412   12.1703 C.3     1  UNL1        0.0052
      3 C          63.6233   83.2497   10.7189 C.3     1  UNL1        0.0028
      4 C          63.5313   82.0444    9.8308 C.3     1  UNL1        0.0293
      5 C          63.0767   80.7306   10.3941 C.3     1  UNL1        0.1109
      6 O          62.9847   79.5253    9.5058 O.3     1  UNL1       -0.3844
      7 C          62.7140   80.6221   11.8455 C.3     1  UNL1        0.0349
      8 C          62.8059   81.8274   12.7336 C.3     1  UNL1        0.0417
      9 C          62.4432   81.7189   14.1851 C.2     1  UNL1        0.0743
     10 N          61.9886   80.4051   14.7484 N.2     1  UNL1       -0.0953
     11 O          61.8966   79.1998   13.8601 O.2     1  UNL1       -0.4092
     12 C          62.5352   82.9242   15.0732 C.3     1  UNL1        0.0446
     13 C          62.9899   84.2379   14.5100 C.3     1  UNL1        0.0063
     14 C          63.3526   84.3465   13.0586 C.3     1  UNL1        0.0007
     15 C          63.8072   85.6602   12.4953 C.3     1  UNL1        0.0003
     16 C          63.8992   86.8655   13.3835 C.3     1  UNL1        0.0040
     17 C          63.5365   86.7570   14.8349 C.3     1  UNL1        0.0190
     18 C          63.9723   88.1298   14.4159 C.3     1  UNL1        0.0044
     19 C          63.5283   87.7652   15.9455 C.2     1  UNL1       -0.0255
     20 C          63.0686   87.0745   17.1952 C.2     1  UNL1       -0.0303
     21 C          62.7927   85.6395   16.8568 C.3     1  UNL1        0.0260
     22 C          63.0818   85.4432   15.3982 C.3     1  UNL1        0.0084
     23 H          63.2526   79.7662    8.6052 H       1  UNL1        0.2103
     24 H          61.6126   78.3791   14.2120 H       1  UNL1        0.3278
     25 C          63.9124   89.2104   15.8273 C.ar    1  UNL1        0.0149
     26 C          64.9969   89.6229   14.8767 C.ar    1  UNL1        0.0028
     27 C          65.3810   91.0681   14.7586 C.ar    1  UNL1        0.0207
     28 C          64.6805   92.1008   15.5910 C.ar    1  UNL1        0.0989
     29 N          63.5959   91.6882   16.5415 N.ar    1  UNL1       -0.2423
     30 C          63.2119   90.2430   16.6597 C.ar    1  UNL1        0.0985
@<TRIPOS>BOND
     1     2     1    1
     2     2     3    1
     3     3     4    1
     4     4     5    1
     5     5     6    1
     6     5     7    1
     7     8     7    1
     8     8     9    1
     9     9    10    2
    10    10    11    1
    11     9    12    1
    12    13    12    1
    13    13    14    1
    14    14    15    1
    15    15    16    1
    16    16    17    1
    17    17    18    1
    18    17    19    1
    19    19    25    1
    20    25    26   ar
    21    26    27   ar
    22    27    28   ar
    23    28    29   ar
    24    29    30   ar
    25    19    20    2
    26    20    21    1
    27    22    21    1
    28     8     2    1
    29    22    13    1
    30    14     2    1
    31    22    17    1
    32    30    25   ar
    33     6    23    1
    34    11    24    1
