@<TRIPOS>MOLECULE
*****
 24 26 0 0 0
SMALL
GASTEIGER

@<TRIPOS>ATOM
      1 C          62.0196   86.7542   10.8884 C.3     1  UNL1        0.0847
      2 N          62.4584   88.1763   11.0764 N.3     1  UNL1       -0.2676
      3 C          63.1434   88.5882   12.3457 C.3     1  UNL1        0.0896
      4 C          63.5823   90.0102   12.5337 C.3     1  UNL1        0.0862
      5 N          63.3361   91.0202   11.4524 N.3     1  UNL1       -0.2951
      6 C          62.6510   90.6083   10.1831 C.3     1  UNL1        0.0862
      7 C          62.2122   89.1863    9.9951 C.3     1  UNL1        0.0896
      8 H          64.2467   91.3955   11.1871 H       1  UNL1        0.1233
      9 C          61.8075   86.2112    9.5064 C.ar    1  UNL1       -0.0075
     10 C          62.9440   85.5630    8.7727 C.ar    1  UNL1       -0.0030
     11 C          62.7319   85.0199    7.3905 C.ar    1  UNL1       -0.0003
     12 C          61.3834   85.1252    6.7422 C.ar    1  UNL1       -0.0000
     13 C          60.2469   85.7734    7.4758 C.ar    1  UNL1       -0.0003
     14 C          60.4590   86.3164    8.8579 C.ar    1  UNL1       -0.0030
     15 C          61.7929   85.8752   12.0826 C.3     1  UNL1        0.0499
     16 C          63.5704   84.6840   13.5562 C.ar    1  UNL1        0.1346
     17 C          64.4756   83.5152   13.8098 C.ar    1  UNL1        0.0366
     18 C          64.5085   82.3686   12.8432 C.ar    1  UNL1        0.0031
     19 C          63.6363   82.3909   11.6231 C.ar    1  UNL1       -0.0001
     20 C          62.7311   83.5597   11.3696 C.ar    1  UNL1       -0.0012
     21 C          62.6981   84.7063   12.3361 C.ar    1  UNL1        0.0135
     22 O          63.5374   85.8307   14.5227 O.3     1  UNL1       -0.4758
     23 C          63.0446   86.3297   17.0243 C.3     1  UNL1        0.0512
     24 C          63.8263   85.5954   15.9757 C.3     1  UNL1        0.2055
@<TRIPOS>BOND
     1    23    24    1
     2    24    22    1
     3    22    16    1
     4    16    17   ar
     5    17    18   ar
     6    18    19   ar
     7    19    20   ar
     8    20    21   ar
     9    21    15    1
    10     1    15    1
    11     1     9    1
    12     9    10   ar
    13    10    11   ar
    14    11    12   ar
    15    12    13   ar
    16    13    14   ar
    17     1     2    1
    18     2     3    1
    19     3     4    1
    20     4     5    1
    21     5     6    1
    22     6     7    1
    23    21    16   ar
    24    14     9   ar
    25     7     2    1
    26     5     8    1
@<TRIPOS>MOLECULE
*****
 24 26 0 0 0
SMALL
GASTEIGER

@<TRIPOS>ATOM
      1 C          62.0228   86.7473   10.8893 C.3     1  UNL1        0.0847
      2 N          62.4584   88.1702   11.0778 N.3     1  UNL1       -0.2676
      3 C          62.2053   89.1813    9.9990 C.3     1  UNL1        0.0896
      4 C          62.6408   90.6042   10.1875 C.3     1  UNL1        0.0862
      5 N          63.3295   91.0161   11.4548 N.3     1  UNL1       -0.2951
      6 C          63.5827   90.0050   12.5336 C.3     1  UNL1        0.0862
      7 C          63.1471   88.5821   12.3451 C.3     1  UNL1        0.0896
      8 H          62.7630   91.7551   11.8710 H       1  UNL1        0.1233
      9 C          61.8093   86.2052    9.5071 C.ar    1  UNL1       -0.0075
     10 C          62.9467   85.5638    8.7690 C.ar    1  UNL1       -0.0030
     11 C          62.7332   85.0216    7.3867 C.ar    1  UNL1       -0.0003
     12 C          61.3821   85.1209    6.7427 C.ar    1  UNL1       -0.0000
     13 C          60.2447   85.7623    7.4808 C.ar    1  UNL1       -0.0003
     14 C          60.4582   86.3044    8.8629 C.ar    1  UNL1       -0.0030
     15 C          61.8008   85.8665   12.0830 C.3     1  UNL1        0.0499
     16 C          63.5868   84.6717   13.5434 C.ar    1  UNL1        0.1346
     17 C          64.4914   83.5010   13.7903 C.ar    1  UNL1        0.0366
     18 C          64.5148   82.3543   12.8236 C.ar    1  UNL1        0.0031
     19 C          63.6335   82.3783   11.6101 C.ar    1  UNL1       -0.0001
     20 C          62.7288   83.5490   11.3632 C.ar    1  UNL1       -0.0012
     21 C          62.7055   84.6957   12.3298 C.ar    1  UNL1        0.0135
     22 O          63.5633   85.8185   14.5101 O.3     1  UNL1       -0.4758
     23 C          63.0511   86.3314   17.0050 C.3     1  UNL1        0.0512
     24 C          63.8276   85.5770   15.9668 C.3     1  UNL1        0.2055
@<TRIPOS>BOND
     1    23    24    1
     2    24    22    1
     3    22    16    1
     4    16    17   ar
     5    17    18   ar
     6    18    19   ar
     7    19    20   ar
     8    20    21   ar
     9    21    15    1
    10     1    15    1
    11     1     9    1
    12     9    10   ar
    13    10    11   ar
    14    11    12   ar
    15    12    13   ar
    16    13    14   ar
    17     1     2    1
    18     2     3    1
    19     3     4    1
    20     4     5    1
    21     5     6    1
    22     6     7    1
    23    21    16   ar
    24    14     9   ar
    25     7     2    1
    26     5     8    1
@<TRIPOS>MOLECULE
*****
 24 26 0 0 0
SMALL
GASTEIGER

@<TRIPOS>ATOM
      1 C          61.4162   87.7084   10.6472 C.3     1  UNL1        0.0847
      2 N          60.5635   87.8240    9.4185 N.3     1  UNL1       -0.2676
      3 C          60.3465   89.1636    8.7795 C.3     1  UNL1        0.0896
      4 C          59.4938   89.2792    7.5509 C.3     1  UNL1        0.0862
      5 N          58.8582   88.0552    6.9612 N.3     1  UNL1       -0.2951
      6 C          59.0753   86.7156    7.6002 C.3     1  UNL1        0.0862
      7 C          59.9279   86.6000    8.8288 C.3     1  UNL1        0.0896
      8 H          59.1954   87.9817    6.0014 H       1  UNL1        0.1233
      9 C          62.2878   88.8551   11.0658 C.ar    1  UNL1       -0.0075
     10 C          62.5063   90.0102   10.1341 C.ar    1  UNL1       -0.0030
     11 C          63.3779   91.1570   10.5528 C.ar    1  UNL1       -0.0003
     12 C          64.0310   91.1486   11.9031 C.ar    1  UNL1       -0.0000
     13 C          63.8126   89.9935   12.8348 C.ar    1  UNL1       -0.0003
     14 C          62.9410   88.8468   12.4162 C.ar    1  UNL1       -0.0030
     15 C          61.3972   86.4461   11.4573 C.3     1  UNL1        0.0499
     16 C          63.0069   84.5960   12.3151 C.ar    1  UNL1        0.1346
     17 C          64.0051   83.5114   12.0372 C.ar    1  UNL1        0.0366
     18 C          64.3918   83.1924   10.6235 C.ar    1  UNL1        0.0031
     19 C          63.7803   83.9579    9.4877 C.ar    1  UNL1       -0.0001
     20 C          62.7821   85.0424    9.7656 C.ar    1  UNL1       -0.0012
     21 C          62.3954   85.3615   11.1793 C.ar    1  UNL1        0.0135
     22 O          62.6202   84.9151   13.7289 O.3     1  UNL1       -0.4758
     23 C          64.4847   86.3760   14.7961 C.3     1  UNL1        0.0512
     24 C          63.6814   85.1096   14.7710 C.3     1  UNL1        0.2055
@<TRIPOS>BOND
     1    23    24    1
     2    24    22    1
     3    22    16    1
     4    16    17   ar
     5    17    18   ar
     6    18    19   ar
     7    19    20   ar
     8    20    21   ar
     9    21    15    1
    10     1    15    1
    11     1     9    1
    12     9    10   ar
    13    10    11   ar
    14    11    12   ar
    15    12    13   ar
    16    13    14   ar
    17     1     2    1
    18     2     3    1
    19     3     4    1
    20     4     5    1
    21     5     6    1
    22     6     7    1
    23    21    16   ar
    24    14     9   ar
    25     7     2    1
    26     5     8    1
@<TRIPOS>MOLECULE
*****
 24 26 0 0 0
SMALL
GASTEIGER

@<TRIPOS>ATOM
      1 C          62.0744   86.3740   11.2705 C.3     1  UNL1        0.0847
      2 N          62.7755   85.4195   12.1911 N.3     1  UNL1       -0.2676
      3 C          63.5858   85.9436   13.3394 C.3     1  UNL1        0.0896
      4 C          64.2868   84.9892   14.2600 C.3     1  UNL1        0.0862
      5 N          64.1775   83.5106   14.0323 N.3     1  UNL1       -0.2951
      6 C          63.3672   82.9865   12.8839 C.3     1  UNL1        0.0862
      7 C          62.6662   83.9410   11.9633 C.3     1  UNL1        0.0896
      8 H          63.7781   83.1107   14.8813 H       1  UNL1        0.1233
      9 C          61.8783   86.0165    9.8270 C.ar    1  UNL1       -0.0075
     10 C          62.9881   85.3619    9.0590 C.ar    1  UNL1       -0.0030
     11 C          62.7920   85.0043    7.6155 C.ar    1  UNL1       -0.0003
     12 C          61.4861   85.3013    6.9400 C.ar    1  UNL1       -0.0000
     13 C          60.3762   85.9559    7.7080 C.ar    1  UNL1       -0.0003
     14 C          60.5723   86.3135    9.1514 C.ar    1  UNL1       -0.0030
     15 C          61.5695   87.6861   11.7934 C.3     1  UNL1        0.0499
     16 C          63.1360   89.5951   12.6011 C.ar    1  UNL1        0.1346
     17 C          63.8971   90.8569   12.3212 C.ar    1  UNL1        0.0366
     18 C          63.8530   91.4717   10.9537 C.ar    1  UNL1        0.0031
     19 C          63.0477   90.8247    9.8661 C.ar    1  UNL1       -0.0001
     20 C          62.2865   89.5629   10.1460 C.ar    1  UNL1       -0.0012
     21 C          62.3307   88.9480   11.5135 C.ar    1  UNL1        0.0135
     22 O          63.1801   88.9802   13.9686 O.3     1  UNL1       -0.4758
     23 C          63.1743   89.2895   16.5481 C.3     1  UNL1        0.0512
     24 C          63.3991   89.8462   15.1736 C.3     1  UNL1        0.2055
@<TRIPOS>BOND
     1    23    24    1
     2    24    22    1
     3    22    16    1
     4    16    17   ar
     5    17    18   ar
     6    18    19   ar
     7    19    20   ar
     8    20    21   ar
     9    21    15    1
    10     1    15    1
    11     1     9    1
    12     9    10   ar
    13    10    11   ar
    14    11    12   ar
    15    12    13   ar
    16    13    14   ar
    17     1     2    1
    18     2     3    1
    19     3     4    1
    20     4     5    1
    21     5     6    1
    22     6     7    1
    23    21    16   ar
    24    14     9   ar
    25     7     2    1
    26     5     8    1
@<TRIPOS>MOLECULE
*****
 24 26 0 0 0
SMALL
GASTEIGER

@<TRIPOS>ATOM
      1 C          61.4516   87.3436   10.5022 C.3     1  UNL1        0.0847
      2 N          60.5370   87.6529    9.3541 N.3     1  UNL1       -0.2676
      3 C          59.7461   86.5541    8.7083 C.3     1  UNL1        0.0896
      4 C          58.8315   86.8633    7.5603 C.3     1  UNL1        0.0862
      5 N          58.7080   88.2713    7.0581 N.3     1  UNL1       -0.2951
      6 C          59.4989   89.3701    7.7039 C.3     1  UNL1        0.0862
      7 C          60.4134   89.0609    8.8519 C.3     1  UNL1        0.0896
      8 H          57.7244   88.5284    7.1414 H       1  UNL1        0.1233
      9 C          62.2510   86.0744   10.5034 C.ar    1  UNL1       -0.0075
     10 C          62.8002   85.5328    9.2169 C.ar    1  UNL1       -0.0030
     11 C          63.5997   84.2635    9.2182 C.ar    1  UNL1       -0.0003
     12 C          63.8499   83.5360   10.5058 C.ar    1  UNL1       -0.0000
     13 C          63.3007   84.0777   11.7923 C.ar    1  UNL1       -0.0003
     14 C          62.5013   85.3469   11.7911 C.ar    1  UNL1       -0.0030
     15 C          61.5667   88.3036   11.6490 C.3     1  UNL1        0.0499
     16 C          63.3064   89.8771   12.7660 C.ar    1  UNL1        0.1346
     17 C          64.2509   91.0391   12.6795 C.ar    1  UNL1        0.0366
     18 C          64.4002   91.7898   11.3895 C.ar    1  UNL1        0.0031
     19 C          63.6050   91.3784   10.1860 C.ar    1  UNL1       -0.0001
     20 C          62.6605   90.2163   10.2725 C.ar    1  UNL1       -0.0012
     21 C          62.5112   89.4657   11.5625 C.ar    1  UNL1        0.0135
     22 O          63.1570   89.1264   14.0561 O.3     1  UNL1       -0.4758
     23 C          64.4008   86.9325   14.6803 C.3     1  UNL1        0.0512
     24 C          64.3407   88.4311   14.6606 C.3     1  UNL1        0.2055
@<TRIPOS>BOND
     1    23    24    1
     2    24    22    1
     3    22    16    1
     4    16    17   ar
     5    17    18   ar
     6    18    19   ar
     7    19    20   ar
     8    20    21   ar
     9    21    15    1
    10     1    15    1
    11     1     9    1
    12     9    10   ar
    13    10    11   ar
    14    11    12   ar
    15    12    13   ar
    16    13    14   ar
    17     1     2    1
    18     2     3    1
    19     3     4    1
    20     4     5    1
    21     5     6    1
    22     6     7    1
    23    21    16   ar
    24    14     9   ar
    25     7     2    1
    26     5     8    1
@<TRIPOS>MOLECULE
*****
 24 26 0 0 0
SMALL
GASTEIGER

@<TRIPOS>ATOM
      1 C          63.5748   85.0975   13.1900 C.3     1  UNL1        0.0847
      2 N          63.3001   83.6452   13.4458 N.3     1  UNL1       -0.2676
      3 C          64.2584   82.6023   12.9516 C.3     1  UNL1        0.0896
      4 C          63.9838   81.1500   13.2073 C.3     1  UNL1        0.0862
      5 N          62.7510   80.7406   13.9573 N.3     1  UNL1       -0.2951
      6 C          61.7928   81.7835   14.4515 C.3     1  UNL1        0.0862
      7 C          62.0674   83.2357   14.1958 C.3     1  UNL1        0.0896
      8 H          63.0640   80.2172   14.7749 H       1  UNL1        0.1233
      9 C          62.9574   85.7803   12.0058 C.ar    1  UNL1       -0.0075
     10 C          62.7848   87.2704   12.0049 C.ar    1  UNL1       -0.0030
     11 C          62.1674   87.9532   10.8206 C.ar    1  UNL1       -0.0003
     12 C          61.7225   87.1460    9.6372 C.ar    1  UNL1       -0.0000
     13 C          61.8950   85.6559    9.6381 C.ar    1  UNL1       -0.0003
     14 C          62.5124   84.9731   10.8223 C.ar    1  UNL1       -0.0030
     15 C          64.4668   85.8670   14.1186 C.3     1  UNL1        0.0499
     16 C          63.8623   88.0123   15.4536 C.ar    1  UNL1        0.1346
     17 C          63.2887   88.6621   16.6778 C.ar    1  UNL1        0.0366
     18 C          62.7459   87.8162   17.7913 C.ar    1  UNL1        0.0031
     19 C          62.7768   86.3206   17.6806 C.ar    1  UNL1       -0.0001
     20 C          63.3505   85.6709   16.4564 C.ar    1  UNL1       -0.0012
     21 C          63.8932   86.5167   15.3429 C.ar    1  UNL1        0.0135
     22 O          64.4050   88.8581   14.3400 O.3     1  UNL1       -0.4758
     23 C          63.8960   90.8872   12.7993 C.3     1  UNL1        0.0512
     24 C          63.9224   90.2676   14.1650 C.3     1  UNL1        0.2055
@<TRIPOS>BOND
     1    23    24    1
     2    24    22    1
     3    22    16    1
     4    16    17   ar
     5    17    18   ar
     6    18    19   ar
     7    19    20   ar
     8    20    21   ar
     9    21    15    1
    10     1    15    1
    11     1     9    1
    12     9    10   ar
    13    10    11   ar
    14    11    12   ar
    15    12    13   ar
    16    13    14   ar
    17     1     2    1
    18     2     3    1
    19     3     4    1
    20     4     5    1
    21     5     6    1
    22     6     7    1
    23    21    16   ar
    24    14     9   ar
    25     7     2    1
    26     5     8    1
@<TRIPOS>MOLECULE
*****
 24 26 0 0 0
SMALL
GASTEIGER

@<TRIPOS>ATOM
      1 C          61.6042   86.4059   10.9241 C.3     1  UNL1        0.0847
      2 N          61.4600   87.8747   11.1927 N.3     1  UNL1       -0.2676
      3 C          60.0953   88.4804   11.3362 C.3     1  UNL1        0.0896
      4 C          59.9510   89.9491   11.6047 C.3     1  UNL1        0.0862
      5 N          61.1715   90.8120   11.7299 N.3     1  UNL1       -0.2951
      6 C          62.5363   90.2062   11.5865 C.3     1  UNL1        0.0862
      7 C          62.6805   88.7376   11.3179 C.3     1  UNL1        0.0896
      8 H          61.1354   91.2408   12.6547 H       1  UNL1        0.1233
      9 C          61.7142   85.9088    9.5132 C.ar    1  UNL1       -0.0075
     10 C          62.9726   85.2357    9.0512 C.ar    1  UNL1       -0.0030
     11 C          63.0825   84.7385    7.6402 C.ar    1  UNL1       -0.0003
     12 C          61.9342   84.9145    6.6913 C.ar    1  UNL1       -0.0000
     13 C          60.6759   85.5876    7.1534 C.ar    1  UNL1       -0.0003
     14 C          60.5659   86.0847    8.5643 C.ar    1  UNL1       -0.0030
     15 C          61.6383   85.4344   12.0665 C.3     1  UNL1        0.0499
     16 C          63.6563   83.9191   12.6843 C.ar    1  UNL1        0.1346
     17 C          64.9310   83.6989   13.4437 C.ar    1  UNL1        0.0366
     18 C          65.4623   84.7739   14.3448 C.ar    1  UNL1        0.0031
     19 C          64.7190   86.0691   14.4865 C.ar    1  UNL1       -0.0001
     20 C          63.4444   86.2892   13.7271 C.ar    1  UNL1       -0.0012
     21 C          62.9130   85.2143   12.8260 C.ar    1  UNL1        0.0135
     22 O          63.1249   82.8441   11.7831 O.3     1  UNL1       -0.4758
     23 C          61.9356   81.6793   13.7778 C.3     1  UNL1        0.0512
     24 C          62.4505   81.6394   12.3695 C.3     1  UNL1        0.2055
@<TRIPOS>BOND
     1    23    24    1
     2    24    22    1
     3    22    16    1
     4    16    17   ar
     5    17    18   ar
     6    18    19   ar
     7    19    20   ar
     8    20    21   ar
     9    21    15    1
    10     1    15    1
    11     1     9    1
    12     9    10   ar
    13    10    11   ar
    14    11    12   ar
    15    12    13   ar
    16    13    14   ar
    17     1     2    1
    18     2     3    1
    19     3     4    1
    20     4     5    1
    21     5     6    1
    22     6     7    1
    23    21    16   ar
    24    14     9   ar
    25     7     2    1
    26     5     8    1
@<TRIPOS>MOLECULE
*****
 24 26 0 0 0
SMALL
GASTEIGER

@<TRIPOS>ATOM
      1 C          64.3998   89.3848   13.9584 C.3     1  UNL1        0.0847
      2 N          64.7801   90.5649   14.8027 N.3     1  UNL1       -0.2676
      3 C          63.8517   91.0490   15.8768 C.3     1  UNL1        0.0896
      4 C          64.2319   92.2290   16.7211 C.3     1  UNL1        0.0862
      5 N          65.5406   92.9250   16.4914 N.3     1  UNL1       -0.2951
      6 C          66.4691   92.4410   15.4173 C.3     1  UNL1        0.0862
      7 C          66.0888   91.2609   14.5730 C.3     1  UNL1        0.0896
      8 H          66.0570   92.8787   17.3698 H       1  UNL1        0.1233
      9 C          63.6410   89.5901   12.6809 C.ar    1  UNL1       -0.0075
     10 C          63.6026   90.9461   12.0410 C.ar    1  UNL1       -0.0030
     11 C          62.8436   91.1513   10.7634 C.ar    1  UNL1       -0.0003
     12 C          62.1232   90.0004   10.1260 C.ar    1  UNL1       -0.0000
     13 C          62.1616   88.6444   10.7660 C.ar    1  UNL1       -0.0003
     14 C          62.9204   88.4392   12.0434 C.ar    1  UNL1       -0.0030
     15 C          64.7785   87.9996   14.3916 C.3     1  UNL1        0.0499
     16 C          63.7033   85.8085   15.2825 C.ar    1  UNL1        0.1346
     17 C          62.8760   85.0908   16.3073 C.ar    1  UNL1        0.0366
     18 C          62.2964   85.8464   17.4662 C.ar    1  UNL1        0.0031
     19 C          62.5442   87.3197   17.6003 C.ar    1  UNL1       -0.0001
     20 C          63.3715   88.0374   16.5755 C.ar    1  UNL1       -0.0012
     21 C          63.9511   87.2818   15.4165 C.ar    1  UNL1        0.0135
     22 O          64.2829   85.0530   14.1235 O.3     1  UNL1       -0.4758
     23 C          62.7247   84.8533   12.0542 C.3     1  UNL1        0.0512
     24 C          63.3904   84.2282   13.2441 C.3     1  UNL1        0.2055
@<TRIPOS>BOND
     1    23    24    1
     2    24    22    1
     3    22    16    1
     4    16    17   ar
     5    17    18   ar
     6    18    19   ar
     7    19    20   ar
     8    20    21   ar
     9    21    15    1
    10     1    15    1
    11     1     9    1
    12     9    10   ar
    13    10    11   ar
    14    11    12   ar
    15    12    13   ar
    16    13    14   ar
    17     1     2    1
    18     2     3    1
    19     3     4    1
    20     4     5    1
    21     5     6    1
    22     6     7    1
    23    21    16   ar
    24    14     9   ar
    25     7     2    1
    26     5     8    1
@<TRIPOS>MOLECULE
*****
 24 26 0 0 0
SMALL
GASTEIGER

@<TRIPOS>ATOM
      1 C          62.0816   86.2377   11.2082 C.3     1  UNL1        0.0847
      2 N          61.8509   85.9371    9.7568 N.3     1  UNL1       -0.2676
      3 C          62.9379   85.3037    8.9400 C.3     1  UNL1        0.0896
      4 C          62.7072   85.0031    7.4887 C.3     1  UNL1        0.0862
      5 N          61.3895   85.3359    6.8541 N.3     1  UNL1       -0.2951
      6 C          60.3024   85.9694    7.6709 C.3     1  UNL1        0.0862
      7 C          60.5331   86.2700    9.1222 C.3     1  UNL1        0.0896
      8 H          61.0109   84.4631    6.4865 H       1  UNL1        0.1233
      9 C          62.8003   85.2462   12.0744 C.ar    1  UNL1       -0.0075
     10 C          62.7123   83.7804   11.7684 C.ar    1  UNL1       -0.0030
     11 C          63.4310   82.7889   12.6347 C.ar    1  UNL1       -0.0003
     12 C          64.2378   83.2632   13.8069 C.ar    1  UNL1       -0.0000
     13 C          64.3258   84.7290   14.1129 C.ar    1  UNL1       -0.0003
     14 C          63.6071   85.7205   13.2467 C.ar    1  UNL1       -0.0030
     15 C          61.5937   87.5298   11.7933 C.3     1  UNL1        0.0499
     16 C          63.1937   89.4304   12.5537 C.ar    1  UNL1        0.1346
     17 C          63.9234   90.7082   12.2629 C.ar    1  UNL1        0.0366
     18 C          63.7828   91.3635   10.9210 C.ar    1  UNL1        0.0031
     19 C          62.9126   90.7408    9.8698 C.ar    1  UNL1       -0.0001
     20 C          62.1829   89.4630   10.1605 C.ar    1  UNL1       -0.0012
     21 C          62.3234   88.8078   11.5025 C.ar    1  UNL1        0.0135
     22 O          63.3342   88.7750   13.8957 O.3     1  UNL1       -0.4758
     23 C          63.1418   89.3422   16.4238 C.3     1  UNL1        0.0512
     24 C          63.7692   89.5824   15.0827 C.3     1  UNL1        0.2055
@<TRIPOS>BOND
     1    23    24    1
     2    24    22    1
     3    22    16    1
     4    16    17   ar
     5    17    18   ar
     6    18    19   ar
     7    19    20   ar
     8    20    21   ar
     9    21    15    1
    10     1    15    1
    11     1     9    1
    12     9    10   ar
    13    10    11   ar
    14    11    12   ar
    15    12    13   ar
    16    13    14   ar
    17     1     2    1
    18     2     3    1
    19     3     4    1
    20     4     5    1
    21     5     6    1
    22     6     7    1
    23    21    16   ar
    24    14     9   ar
    25     7     2    1
    26     5     8    1
