@<TRIPOS>MOLECULE
*****
 57 64 0 0 0
SMALL
GASTEIGER

@<TRIPOS>ATOM
      1 N          65.3865   89.1968   14.5069 N.3     1  UNL1       -0.1862
      2 C          65.5917   87.9420   15.3028 C.3     1  UNL1        0.1775
      3 C          64.8023   86.7091   14.9760 C.2     1  UNL1        0.2452
      4 O          65.0076   85.4543   15.7719 O.2     1  UNL1       -0.2732
      5 N          63.8078   86.7309   13.8534 N.am    1  UNL1       -0.2541
      6 C          63.0184   85.4980   13.5266 C.3     1  UNL1        0.1577
      7 C          62.0238   85.5199   12.4040 C.2     1  UNL1        0.2445
      8 O          61.2344   84.2869   12.0772 O.2     1  UNL1       -0.2731
      9 N          61.8186   86.7747   11.6081 N.am    1  UNL1       -0.2705
     10 C          62.6080   88.0076   11.9348 C.3     1  UNL1        0.1359
     11 C          63.6026   87.9857   13.0575 C.3     1  UNL1        0.1908
     12 N          64.3919   89.2186   13.3843 N.am    1  UNL1       -0.1863
     13 C          64.1867   90.4735   12.5884 C.2     1  UNL1        0.3191
     14 O          63.1921   90.4953   11.4658 O.2     1  UNL1       -0.2512
     15 N          64.9761   91.7064   12.9152 N.am    1  UNL1       -0.2836
     16 H          65.6289   91.6920   13.6520 H       1  UNL1        0.1513
     17 C          66.1759   90.4297   14.8337 C.3     1  UNL1        0.1188
     18 C          66.3749   92.7112   16.0605 C.2     1  UNL1       -0.0034
     19 C          65.5575   91.5196   15.6580 C.2     1  UNL1       -0.0071
     20 C          63.2236   84.2432   14.3224 C.3     1  UNL1        0.0556
     21 C          63.0678   82.9041   13.6648 C.ar    1  UNL1       -0.0198
     22 C          63.8628   82.5748   12.4363 C.ar    1  UNL1       -0.0011
     23 C          63.7070   81.2357   11.7787 C.ar    1  UNL1        0.0363
     24 C          62.7561   80.2258   12.3496 C.ar    1  UNL1        0.1337
     25 O          62.6003   78.8867   11.6920 O.3     1  UNL1       -0.5055
     26 C          61.9610   80.5551   13.5782 C.ar    1  UNL1        0.0363
     27 C          62.1168   81.8943   14.2358 C.ar    1  UNL1       -0.0011
     28 H          63.0970   78.6810   10.9246 H       1  UNL1        0.2922
     29 C          60.8240   86.7965   10.4854 C.3     1  UNL1        0.1217
     30 C          60.4032   88.1036    9.8815 C.ar    1  UNL1        0.0135
     31 C          60.1491   89.2900   10.7635 C.ar    1  UNL1       -0.0012
     32 C          59.7284   90.5970   10.1596 C.ar    1  UNL1       -0.0002
     33 C          59.5617   90.7176    8.6738 C.ar    1  UNL1        0.0016
     34 C          59.8158   89.5312    7.7919 C.ar    1  UNL1        0.0214
     35 C          59.7338   89.3498    6.3052 C.ar    1  UNL1        0.0721
     36 C          60.1039   87.9307    5.9902 C.ar    1  UNL1        0.0805
     37 N          60.4146   87.2351    7.2822 N.ar    1  UNL1       -0.3241
     38 C          60.8304   85.8019    7.4341 C.3     1  UNL1        0.1305
     39 C          60.2366   88.2242    8.3957 C.ar    1  UNL1        0.0577
     40 C          59.3492   90.4028    5.3084 C.2     1  UNL1        0.2505
     41 O          57.9146   90.8197    5.1736 O.2     1  UNL1       -0.2699
     42 N          60.3992   91.0388    4.4464 N.am    1  UNL1       -0.2763
     43 C          61.8661   90.7260    4.4683 C.3     1  UNL1        0.0938
     44 C          62.5402   91.5931    3.4466 C.3     1  UNL1        0.0246
     45 C          61.4899   92.4417    2.7933 C.3     1  UNL1        0.0373
     46 C          61.2574   93.5020    1.7582 C.3     1  UNL1        0.0739
     47 N          59.7905   93.8148    1.7363 N.3     1  UNL1       -0.2700
     48 C          59.1161   94.8184    0.8486 C.3     1  UNL1        0.0897
     49 C          59.1165   92.9477    2.7579 C.3     1  UNL1        0.0922
     50 C          60.1668   92.0990    3.4113 C.3     1  UNL1        0.0929
     51 C          64.7709   92.9612   12.1194 C.3     1  UNL1        0.1177
     52 C          65.8169   93.4088   11.1419 C.ar    1  UNL1       -0.0025
     53 C          65.8837   94.8470   10.7211 C.ar    1  UNL1       -0.0026
     54 C          66.9297   95.2946    9.7436 C.ar    1  UNL1       -0.0003
     55 C          67.9088   94.3041    9.1868 C.ar    1  UNL1       -0.0000
     56 C          67.8420   92.8658    9.6075 C.ar    1  UNL1       -0.0003
     57 C          66.7960   92.4181   10.5850 C.ar    1  UNL1       -0.0026
@<TRIPOS>BOND
     1    18    19    2
     2    19    17    1
     3    17     1    1
     4     1     2    1
     5     2     3    1
     6     3     4    2
     7     3     5   am
     8     5     6    1
     9     6    20    1
    10    20    21    1
    11    21    22   ar
    12    22    23   ar
    13    23    24   ar
    14    24    25    1
    15    24    26   ar
    16    26    27   ar
    17     6     7    1
    18     7     8    2
    19     7     9   am
    20     9    29    1
    21    29    30    1
    22    30    31   ar
    23    31    32   ar
    24    32    33   ar
    25    33    34   ar
    26    34    35   ar
    27    35    40    1
    28    40    41    2
    29    40    42   am
    30    42    43    1
    31    43    44    1
    32    44    45    1
    33    45    46    1
    34    46    47    1
    35    47    48    1
    36    47    49    1
    37    49    50    1
    38    35    36   ar
    39    36    37   ar
    40    37    38    1
    41    37    39   ar
    42     9    10    1
    43    11    10    1
    44    11    12    1
    45    12    13   am
    46    13    14    2
    47    13    15   am
    48    15    51    1
    49    51    52    1
    50    52    53   ar
    51    53    54   ar
    52    54    55   ar
    53    55    56   ar
    54    56    57   ar
    55    12     1    1
    56    57    52   ar
    57    11     5    1
    58    27    21   ar
    59    39    30   ar
    60    39    34   ar
    61    50    42    1
    62    50    45    1
    63    25    28    1
    64    15    16    1
@<TRIPOS>MOLECULE
*****
 57 64 0 0 0
SMALL
GASTEIGER

@<TRIPOS>ATOM
      1 N          63.0733   90.4728   10.5032 N.3     1  UNL1       -0.1862
      2 C          63.7640   91.7744   10.7836 C.3     1  UNL1        0.1775
      3 C          64.2724   92.0718   12.1631 C.2     1  UNL1        0.2452
      4 O          64.9632   93.3734   12.4434 O.2     1  UNL1       -0.2732
      5 N          64.0900   91.0675   13.2623 N.am    1  UNL1       -0.2541
      6 C          64.5984   91.3649   14.6418 C.3     1  UNL1        0.1577
      7 C          64.4161   90.3607   15.7410 C.2     1  UNL1        0.2445
      8 O          64.9245   90.6580   17.1205 O.2     1  UNL1       -0.2731
      9 N          63.7253   89.0590   15.4606 N.am    1  UNL1       -0.2705
     10 C          63.2169   88.7616   14.0811 C.3     1  UNL1        0.1359
     11 C          63.3993   89.7659   12.9819 C.3     1  UNL1        0.1908
     12 N          62.8909   89.4686   11.6024 N.am    1  UNL1       -0.1863
     13 C          62.2001   88.1669   11.3221 C.2     1  UNL1        0.3191
     14 O          62.0177   87.1627   12.4212 O.2     1  UNL1       -0.2512
     15 N          61.6917   87.8695    9.9425 N.am    1  UNL1       -0.2836
     16 H          61.8114   88.5287    9.2211 H       1  UNL1        0.1513
     17 C          62.5649   90.1754    9.1237 C.3     1  UNL1        0.1188
     18 C          60.1212   90.4479    9.9628 C.2     1  UNL1       -0.0034
     19 C          61.0913   90.2049    8.8449 C.2     1  UNL1       -0.0071
     20 C          65.2892   92.6665   14.9222 C.3     1  UNL1        0.0556
     21 C          66.7790   92.7705   14.7815 C.ar    1  UNL1       -0.0198
     22 C          67.5659   93.6134   15.7409 C.ar    1  UNL1       -0.0011
     23 C          69.0556   93.7173   15.6002 C.ar    1  UNL1        0.0363
     24 C          69.7585   92.9784   14.5003 C.ar    1  UNL1        0.1337
     25 O          71.2483   93.0824   14.3597 O.3     1  UNL1       -0.5055
     26 C          68.9716   92.1355   13.5409 C.ar    1  UNL1        0.0363
     27 C          67.4819   92.0315   13.6815 C.ar    1  UNL1       -0.0011
     28 H          71.7398   93.6090   14.9589 H       1  UNL1        0.2922
     29 C          63.5429   88.0548   16.5598 C.3     1  UNL1        0.1217
     30 C          62.8707   86.7444   16.2747 C.ar    1  UNL1        0.0135
     31 C          61.4849   86.4853   16.7871 C.ar    1  UNL1       -0.0012
     32 C          60.8127   85.1751   16.5020 C.ar    1  UNL1       -0.0002
     33 C          61.5262   84.1240   15.7045 C.ar    1  UNL1        0.0016
     34 C          62.9119   84.3831   15.1921 C.ar    1  UNL1        0.0214
     35 C          63.8569   83.5433   14.3847 C.ar    1  UNL1        0.0721
     36 C          65.1131   84.3346   14.1708 C.ar    1  UNL1        0.0805
     37 N          64.9446   85.6633   14.8460 N.ar    1  UNL1       -0.3241
     38 C          65.9584   86.7681   14.8835 C.3     1  UNL1        0.1305
     39 C          63.5842   85.6933   15.4772 C.ar    1  UNL1        0.0577
     40 C          63.5920   82.1558   13.8798 C.2     1  UNL1        0.2505
     41 O          63.4367   81.0218   14.8493 O.2     1  UNL1       -0.2699
     42 N          63.4825   81.9024   12.4055 N.am    1  UNL1       -0.2763
     43 C          63.6144   82.9312   11.3218 C.3     1  UNL1        0.0938
     44 C          63.4354   82.2403   10.0025 C.3     1  UNL1        0.0246
     45 C          63.1928   80.7845   10.2707 C.3     1  UNL1        0.0373
     46 C          62.9322   79.4579    9.6211 C.3     1  UNL1        0.0739
     47 N          62.8002   78.4291   10.7047 N.3     1  UNL1       -0.2700
     48 C          62.5357   76.9663   10.5043 C.3     1  UNL1        0.0897
     49 C          62.9793   79.1200   12.0240 C.3     1  UNL1        0.0922
     50 C          63.2219   80.5758   11.7558 C.3     1  UNL1        0.0929
     51 C          61.0009   86.5679    9.6622 C.3     1  UNL1        0.1177
     52 C          61.3286   85.7978    8.4174 C.ar    1  UNL1       -0.0025
     53 C          62.7319   85.3270    8.1743 C.ar    1  UNL1       -0.0026
     54 C          63.0596   84.5569    6.9295 C.ar    1  UNL1       -0.0003
     55 C          61.9841   84.2576    5.9277 C.ar    1  UNL1       -0.0000
     56 C          60.5807   84.7284    6.1708 C.ar    1  UNL1       -0.0003
     57 C          60.2530   85.4985    7.4156 C.ar    1  UNL1       -0.0026
@<TRIPOS>BOND
     1    18    19    2
     2    19    17    1
     3    17     1    1
     4     1     2    1
     5     2     3    1
     6     3     4    2
     7     3     5   am
     8     5     6    1
     9     6    20    1
    10    20    21    1
    11    21    22   ar
    12    22    23   ar
    13    23    24   ar
    14    24    25    1
    15    24    26   ar
    16    26    27   ar
    17     6     7    1
    18     7     8    2
    19     7     9   am
    20     9    29    1
    21    29    30    1
    22    30    31   ar
    23    31    32   ar
    24    32    33   ar
    25    33    34   ar
    26    34    35   ar
    27    35    40    1
    28    40    41    2
    29    40    42   am
    30    42    43    1
    31    43    44    1
    32    44    45    1
    33    45    46    1
    34    46    47    1
    35    47    48    1
    36    47    49    1
    37    49    50    1
    38    35    36   ar
    39    36    37   ar
    40    37    38    1
    41    37    39   ar
    42     9    10    1
    43    11    10    1
    44    11    12    1
    45    12    13   am
    46    13    14    2
    47    13    15   am
    48    15    51    1
    49    51    52    1
    50    52    53   ar
    51    53    54   ar
    52    54    55   ar
    53    55    56   ar
    54    56    57   ar
    55    12     1    1
    56    57    52   ar
    57    11     5    1
    58    27    21   ar
    59    39    30   ar
    60    39    34   ar
    61    50    42    1
    62    50    45    1
    63    25    28    1
    64    15    16    1
@<TRIPOS>MOLECULE
*****
 57 64 0 0 0
SMALL
GASTEIGER

@<TRIPOS>ATOM
      1 N          62.2858   90.0910   10.1442 N.3     1  UNL1       -0.1862
      2 C          62.7682   91.4612   10.5183 C.3     1  UNL1        0.1775
      3 C          63.4316   91.6866   11.8446 C.2     1  UNL1        0.2452
      4 O          63.9140   93.0568   12.2186 O.2     1  UNL1       -0.2732
      5 N          63.6126   90.5419   12.7969 N.am    1  UNL1       -0.2541
      6 C          64.2760   90.7673   14.1232 C.3     1  UNL1        0.1577
      7 C          64.4570   89.6226   15.0754 C.2     1  UNL1        0.2445
      8 O          65.1204   89.8480   16.4017 O.2     1  UNL1       -0.2731
      9 N          63.9746   88.2524   14.7014 N.am    1  UNL1       -0.2705
     10 C          63.3112   88.0269   13.3751 C.3     1  UNL1        0.1359
     11 C          63.1302   89.1717   12.4228 C.3     1  UNL1        0.1908
     12 N          62.4668   88.9463   11.0965 N.am    1  UNL1       -0.1863
     13 C          61.9844   87.5761   10.7225 C.2     1  UNL1        0.3191
     14 O          62.1654   86.4314   11.6747 O.2     1  UNL1       -0.2512
     15 N          61.3210   87.3506    9.3961 N.am    1  UNL1       -0.2836
     16 H          61.2023   88.1020    8.7711 H       1  UNL1        0.1513
     17 C          61.6225   89.8656    8.8179 C.3     1  UNL1        0.1188
     18 C          59.4709   89.3368    7.4611 C.2     1  UNL1       -0.0034
     19 C          60.1267   89.7955    8.7298 C.2     1  UNL1       -0.0071
     20 C          64.7584   92.1375   14.4972 C.3     1  UNL1        0.0556
     21 C          66.2292   92.4110   14.6058 C.ar    1  UNL1       -0.0198
     22 C          66.7790   93.0818   15.8297 C.ar    1  UNL1       -0.0011
     23 C          68.2498   93.3554   15.9382 C.ar    1  UNL1        0.0363
     24 C          69.1709   92.9582   14.8230 C.ar    1  UNL1        0.1337
     25 O          70.6417   93.2318   14.9316 O.3     1  UNL1       -0.5055
     26 C          68.6212   92.2874   13.5991 C.ar    1  UNL1        0.0363
     27 C          67.1503   92.0138   13.4905 C.ar    1  UNL1       -0.0011
     28 H          70.9851   93.6509   15.6961 H       1  UNL1        0.2922
     29 C          64.1556   87.1077   15.6536 C.3     1  UNL1        0.1217
     30 C          64.5810   85.7643   15.1393 C.ar    1  UNL1        0.0135
     31 C          66.0359   85.4703   14.9231 C.ar    1  UNL1       -0.0012
     32 C          66.4614   84.1270   14.4089 C.ar    1  UNL1       -0.0002
     33 C          65.4318   83.0777   14.1108 C.ar    1  UNL1        0.0016
     34 C          63.9769   83.3716   14.3270 C.ar    1  UNL1        0.0214
     35 C          62.7441   82.5417   14.1231 C.ar    1  UNL1        0.0721
     36 C          61.5569   83.3721   14.5113 C.ar    1  UNL1        0.0805
     37 N          62.0558   84.7152   14.9552 N.ar    1  UNL1       -0.3241
     38 C          61.2080   85.8580   15.4297 C.3     1  UNL1        0.1305
     39 C          63.5515   84.7149   14.8412 C.ar    1  UNL1        0.0577
     40 C          62.7055   81.1293   13.6193 C.2     1  UNL1        0.2505
     41 O          62.4875   79.9967   14.5783 O.2     1  UNL1       -0.2699
     42 N          62.8848   80.8496   12.1566 N.am    1  UNL1       -0.2763
     43 C          63.1101   81.8739   11.0841 C.3     1  UNL1        0.0938
     44 C          63.2349   81.1539    9.7742 C.3     1  UNL1        0.0246
     45 C          63.0867   79.6844   10.0370 C.3     1  UNL1        0.0373
     46 C          63.0722   78.3314    9.3899 C.3     1  UNL1        0.0739
     47 N          62.8470   77.3071   10.4623 N.3     1  UNL1       -0.2700
     48 C          62.7615   75.8232   10.2603 C.3     1  UNL1        0.0897
     49 C          62.7222   78.0271   11.7722 C.3     1  UNL1        0.0922
     50 C          62.8704   79.4965   11.5094 C.3     1  UNL1        0.0929
     51 C          60.8387   85.9805    9.0221 C.3     1  UNL1        0.1177
     52 C          61.3363   85.3269    7.7670 C.ar    1  UNL1       -0.0025
     53 C          60.3616   84.8658    6.7243 C.ar    1  UNL1       -0.0026
     54 C          60.8592   84.2121    5.4693 C.ar    1  UNL1       -0.0003
     55 C          62.3315   84.0196    5.2570 C.ar    1  UNL1       -0.0000
     56 C          63.3063   84.4806    6.2997 C.ar    1  UNL1       -0.0003
     57 C          62.8087   85.1343    7.5548 C.ar    1  UNL1       -0.0026
@<TRIPOS>BOND
     1    18    19    2
     2    19    17    1
     3    17     1    1
     4     1     2    1
     5     2     3    1
     6     3     4    2
     7     3     5   am
     8     5     6    1
     9     6    20    1
    10    20    21    1
    11    21    22   ar
    12    22    23   ar
    13    23    24   ar
    14    24    25    1
    15    24    26   ar
    16    26    27   ar
    17     6     7    1
    18     7     8    2
    19     7     9   am
    20     9    29    1
    21    29    30    1
    22    30    31   ar
    23    31    32   ar
    24    32    33   ar
    25    33    34   ar
    26    34    35   ar
    27    35    40    1
    28    40    41    2
    29    40    42   am
    30    42    43    1
    31    43    44    1
    32    44    45    1
    33    45    46    1
    34    46    47    1
    35    47    48    1
    36    47    49    1
    37    49    50    1
    38    35    36   ar
    39    36    37   ar
    40    37    38    1
    41    37    39   ar
    42     9    10    1
    43    11    10    1
    44    11    12    1
    45    12    13   am
    46    13    14    2
    47    13    15   am
    48    15    51    1
    49    51    52    1
    50    52    53   ar
    51    53    54   ar
    52    54    55   ar
    53    55    56   ar
    54    56    57   ar
    55    12     1    1
    56    57    52   ar
    57    11     5    1
    58    27    21   ar
    59    39    30   ar
    60    39    34   ar
    61    50    42    1
    62    50    45    1
    63    25    28    1
    64    15    16    1
