@<TRIPOS>MOLECULE
*****
 60 66 0 0 0
SMALL
GASTEIGER

@<TRIPOS>ATOM
      1 N          65.4489   89.2370   14.5690 N.3     1  UNL1       -0.1862
      2 C          65.6618   87.9870   15.3703 C.3     1  UNL1        0.1775
      3 C          64.8967   86.7413   15.0342 C.2     1  UNL1        0.2452
      4 O          65.1097   85.4912   15.8355 O.2     1  UNL1       -0.2732
      5 N          63.9187   86.7457   13.8970 N.am    1  UNL1       -0.2541
      6 C          63.1536   85.5000   13.5609 C.3     1  UNL1        0.1577
      7 C          62.1756   85.5044   12.4237 C.2     1  UNL1        0.2445
      8 O          61.4105   84.2587   12.0876 O.2     1  UNL1       -0.2731
      9 N          61.9626   86.7545   11.6224 N.am    1  UNL1       -0.2705
     10 C          62.7277   88.0001   11.9584 C.3     1  UNL1        0.1359
     11 C          63.7058   87.9957   13.0957 C.3     1  UNL1        0.1908
     12 N          64.4708   89.2414   13.4318 N.am    1  UNL1       -0.1863
     13 C          64.2579   90.4915   12.6305 C.2     1  UNL1        0.3191
     14 O          63.2799   90.4959   11.4932 O.2     1  UNL1       -0.2512
     15 N          65.0230   91.7372   12.9665 N.am    1  UNL1       -0.2836
     16 H          65.6649   91.7343   13.7130 H       1  UNL1        0.1513
     17 C          66.2140   90.4827   14.9051 C.3     1  UNL1        0.1188
     18 C          66.3710   92.7539   16.1569 C.2     1  UNL1       -0.0034
     19 C          65.5742   91.5543   15.7371 C.2     1  UNL1       -0.0071
     20 C          63.3665   84.2500   14.3622 C.3     1  UNL1        0.0556
     21 C          63.1565   82.9073   13.7273 C.ar    1  UNL1       -0.0198
     22 C          62.1181   81.9732   14.2743 C.ar    1  UNL1       -0.0011
     23 C          61.9081   80.6305   13.6394 C.ar    1  UNL1        0.0363
     24 C          62.7364   80.2219   12.4575 C.ar    1  UNL1        0.1337
     25 O          62.5264   78.8792   11.8226 O.3     1  UNL1       -0.5055
     26 C          63.7748   81.1560   11.9104 C.ar    1  UNL1        0.0363
     27 C          63.9849   82.4987   12.5453 C.ar    1  UNL1       -0.0011
     28 H          61.8777   78.2957   12.1643 H       1  UNL1        0.2922
     29 C          60.9846   86.7588   10.4851 C.3     1  UNL1        0.1217
     30 C          60.4528   88.0587    9.9582 C.ar    1  UNL1        0.0135
     31 C          60.2453   89.2166   10.8889 C.ar    1  UNL1       -0.0012
     32 C          59.7135   90.5164   10.3621 C.ar    1  UNL1       -0.0002
     33 C          59.3893   90.6584    8.9045 C.ar    1  UNL1        0.0016
     34 C          59.5968   89.5005    7.9737 C.ar    1  UNL1        0.0214
     35 C          59.3684   89.3444    6.4995 C.ar    1  UNL1        0.0719
     36 C          59.7590   87.9480    6.1152 C.ar    1  UNL1        0.0805
     37 N          60.2288   87.2412    7.3519 N.ar    1  UNL1       -0.3241
     38 C          60.7137   85.8238    7.4269 C.3     1  UNL1        0.1305
     39 C          60.1286   88.2007    8.5006 C.ar    1  UNL1        0.0577
     40 C          58.8418   90.3994    5.5722 C.2     1  UNL1        0.2476
     41 O          57.3627   90.5578    5.3791 O.2     1  UNL1       -0.2701
     42 N          59.7943   91.2960    4.8381 N.am    1  UNL1       -0.2968
     43 H          60.7650   91.1920    4.9649 H       1  UNL1        0.1501
     44 C          59.2678   92.3510    3.9109 C.3     1  UNL1        0.1181
     45 C          60.0501   92.7348    2.6900 C.ar    1  UNL1        0.0167
     46 C          61.5476   92.6494    2.7013 C.ar    1  UNL1        0.0018
     47 C          62.3299   93.0332    1.4803 C.ar    1  UNL1        0.0341
     48 C          61.6147   93.5023    0.2481 C.ar    1  UNL1        0.1318
     49 N          60.1172   93.5876    0.2368 N.ar    1  UNL1       -0.2294
     50 C          59.3349   93.2039    1.4577 C.ar    1  UNL1        0.0977
     51 N          62.3970   93.8861   -0.9729 N.pl3   1  UNL1       -0.2897
     52 C          61.8943   93.5091   -2.3349 C.3     1  UNL1        0.1136
     53 C          63.6820   94.6469   -0.8317 C.3     1  UNL1        0.1136
     54 C          64.8101   92.9872   12.1653 C.3     1  UNL1        0.1177
     55 C          65.8531   93.4368   11.1855 C.ar    1  UNL1       -0.0025
     56 C          66.8014   92.4394   10.5891 C.ar    1  UNL1       -0.0026
     57 C          67.8444   92.8890    9.6093 C.ar    1  UNL1       -0.0003
     58 C          67.9391   94.3361    9.2260 C.ar    1  UNL1       -0.0000
     59 C          66.9907   95.3336    9.8224 C.ar    1  UNL1       -0.0003
     60 C          65.9477   94.8840   10.8022 C.ar    1  UNL1       -0.0026
@<TRIPOS>BOND
     1    18    19    2
     2    19    17    1
     3    17     1    1
     4     1     2    1
     5     2     3    1
     6     3     4    2
     7     3     5   am
     8     5     6    1
     9     6    20    1
    10    20    21    1
    11    21    22   ar
    12    22    23   ar
    13    23    24   ar
    14    24    25    1
    15    24    26   ar
    16    26    27   ar
    17     6     7    1
    18     7     8    2
    19     7     9   am
    20     9    29    1
    21    29    30    1
    22    30    31   ar
    23    31    32   ar
    24    32    33   ar
    25    33    34   ar
    26    34    35   ar
    27    35    40    1
    28    40    41    2
    29    40    42   am
    30    42    44    1
    31    44    45    1
    32    45    46   ar
    33    46    47   ar
    34    47    48   ar
    35    48    51    1
    36    51    52    1
    37    51    53    1
    38    48    49   ar
    39    49    50   ar
    40    35    36   ar
    41    36    37   ar
    42    37    38    1
    43    37    39   ar
    44     9    10    1
    45    11    10    1
    46    11    12    1
    47    12    13   am
    48    13    14    2
    49    13    15   am
    50    15    54    1
    51    54    55    1
    52    55    56   ar
    53    56    57   ar
    54    57    58   ar
    55    58    59   ar
    56    59    60   ar
    57    12     1    1
    58    60    55   ar
    59    11     5    1
    60    27    21   ar
    61    39    30   ar
    62    39    34   ar
    63    50    45   ar
    64    25    28    1
    65    42    43    1
    66    15    16    1
