@<TRIPOS>MOLECULE
*****
 30 32 0 0 0
SMALL
GASTEIGER

@<TRIPOS>ATOM
      1 C          63.8292   84.1804   14.5080 C.3     1  UNL1        0.0591
      2 C          63.1281   83.5337   15.6657 C.3     1  UNL1        0.2092
      3 O          62.3259   82.3817   15.1370 O.3     1  UNL1       -0.4485
      4 C          62.5312   82.3165   13.6526 C.2     1  UNL1        0.3169
      5 O          61.9155   81.3154   12.7205 O.2     1  UNL1       -0.2501
      6 C          63.4603   83.4281   13.2639 C.3     1  UNL1        0.1073
      7 C          64.7394   85.3704   14.5816 C.3     1  UNL1        0.0307
      8 C          63.9601   89.2355   15.0329 C.ar    1  UNL1        0.1718
      9 C          64.4541   87.9490   14.4408 C.ar    1  UNL1        0.0358
     10 C          64.2453   86.6570   15.1738 C.ar    1  UNL1       -0.0188
     11 C          63.5425   86.6517   16.4989 C.ar    1  UNL1       -0.0010
     12 C          63.0485   87.9382   17.0910 C.ar    1  UNL1        0.0395
     13 C          63.2573   89.2302   16.3580 C.ar    1  UNL1        0.1677
     14 O          62.7633   90.5168   16.9502 O.3     1  UNL1       -0.5029
     15 H          62.3242   90.5134   17.7780 H       1  UNL1        0.2923
     16 C          63.6975   90.6707   12.8832 C.3     1  UNL1        0.2526
     17 O          64.1689   90.5275   14.2999 O.3     1  UNL1       -0.4684
     18 C          63.9368   83.7338   11.8748 C.3     1  UNL1        0.0378
     19 C          63.1107   84.6016   10.9723 C.ar    1  UNL1       -0.0154
     20 C          63.2351   84.4682    9.4835 C.ar    1  UNL1        0.0360
     21 C          62.4089   85.3361    8.5811 C.ar    1  UNL1        0.1749
     22 C          61.4583   86.3373    9.1676 C.ar    1  UNL1        0.2024
     23 O          60.6321   87.2051    8.2652 O.3     1  UNL1       -0.5009
     24 C          61.3338   86.4706   10.6565 C.ar    1  UNL1        0.1749
     25 C          62.1600   85.6028   11.5589 C.ar    1  UNL1        0.0360
     26 H          60.7098   87.1218    7.3352 H       1  UNL1        0.2924
     27 O          62.5333   85.2028    7.0923 O.3     1  UNL1       -0.4683
     28 C          61.4900   84.4548    6.3164 C.3     1  UNL1        0.2526
     29 O          60.3832   87.4718   11.2430 O.3     1  UNL1       -0.4683
     30 C          60.7163   88.9339   11.2050 C.3     1  UNL1        0.2526
@<TRIPOS>BOND
     1    16    17    1
     2    17     8    1
     3     8     9   ar
     4     9    10   ar
     5    10     7    1
     6     1     7    1
     7     1     2    1
     8     2     3    1
     9     3     4    1
    10     4     5    2
    11     4     6    1
    12     6    18    1
    13    18    19    1
    14    19    20   ar
    15    20    21   ar
    16    21    27    1
    17    27    28    1
    18    21    22   ar
    19    22    23    1
    20    22    24   ar
    21    24    29    1
    22    29    30    1
    23    24    25   ar
    24    10    11   ar
    25    11    12   ar
    26    12    13   ar
    27    13    14    1
    28    13     8   ar
    29     6     1    1
    30    25    19   ar
    31    23    26    1
    32    14    15    1
@<TRIPOS>MOLECULE
*****
 30 32 0 0 0
SMALL
GASTEIGER

@<TRIPOS>ATOM
      1 C          63.8086   84.2245   14.4822 C.3     1  UNL1        0.0591
      2 C          63.1186   83.6151   15.6664 C.3     1  UNL1        0.2092
      3 O          62.3303   82.4329   15.1860 O.3     1  UNL1       -0.4485
      4 C          62.5332   82.3115   13.7047 C.2     1  UNL1        0.3169
      5 O          61.9285   81.2664   12.8146 O.2     1  UNL1       -0.2501
      6 C          63.4468   83.4188   13.2698 C.3     1  UNL1        0.1073
      7 C          64.7034   85.4282   14.5061 C.3     1  UNL1        0.0307
      8 C          63.9176   89.2858   15.0079 C.ar    1  UNL1        0.1718
      9 C          64.3987   88.0058   14.3913 C.ar    1  UNL1        0.0358
     10 C          64.2222   86.7082   15.1228 C.ar    1  UNL1       -0.0188
     11 C          63.5647   86.6905   16.4708 C.ar    1  UNL1       -0.0010
     12 C          63.0836   87.9705   17.0874 C.ar    1  UNL1        0.0395
     13 C          63.2600   89.2681   16.3559 C.ar    1  UNL1        0.1677
     14 O          62.7789   90.5481   16.9725 O.3     1  UNL1       -0.5029
     15 H          62.3681   90.5371   17.8146 H       1  UNL1        0.2923
     16 C          63.7962   90.6634   12.8085 C.3     1  UNL1        0.2526
     17 O          64.0941   90.5834   14.2764 O.3     1  UNL1       -0.4684
     18 C          63.9162   83.6754   11.8684 C.3     1  UNL1        0.0378
     19 C          63.1131   84.5560   10.9577 C.ar    1  UNL1       -0.0154
     20 C          62.1658   85.5659   11.5342 C.ar    1  UNL1        0.0360
     21 C          61.3626   86.4466   10.6234 C.ar    1  UNL1        0.1749
     22 C          61.5069   86.3172    9.1360 C.ar    1  UNL1        0.2024
     23 O          60.7039   87.1978    8.2252 O.3     1  UNL1       -0.5009
     24 C          62.4543   85.3072    8.5593 C.ar    1  UNL1        0.1749
     25 C          63.2574   84.4267    9.4702 C.ar    1  UNL1        0.0360
     26 H          60.1121   87.8287    8.5853 H       1  UNL1        0.2924
     27 O          60.4153   87.4565   11.2000 O.3     1  UNL1       -0.4683
     28 C          60.7957   88.9070   11.2355 C.3     1  UNL1        0.2526
     29 O          62.5986   85.1778    7.0719 O.3     1  UNL1       -0.4683
     30 C          61.5671   84.4296    6.2806 C.3     1  UNL1        0.2526
@<TRIPOS>BOND
     1    16    17    1
     2    17     8    1
     3     8     9   ar
     4     9    10   ar
     5    10     7    1
     6     1     7    1
     7     1     2    1
     8     2     3    1
     9     3     4    1
    10     4     5    2
    11     4     6    1
    12     6    18    1
    13    18    19    1
    14    19    20   ar
    15    20    21   ar
    16    21    27    1
    17    27    28    1
    18    21    22   ar
    19    22    23    1
    20    22    24   ar
    21    24    29    1
    22    29    30    1
    23    24    25   ar
    24    10    11   ar
    25    11    12   ar
    26    12    13   ar
    27    13    14    1
    28    13     8   ar
    29     6     1    1
    30    25    19   ar
    31    23    26    1
    32    14    15    1
@<TRIPOS>MOLECULE
*****
 30 32 0 0 0
SMALL
GASTEIGER

@<TRIPOS>ATOM
      1 C          61.2995   87.4936    9.6359 C.3     1  UNL1        0.0591
      2 C          59.8499   87.1324    9.7705 C.3     1  UNL1        0.2092
      3 O          59.1124   88.3466   10.2520 O.3     1  UNL1       -0.4485
      4 C          60.1062   89.4583   10.4150 C.2     1  UNL1        0.3169
      5 O          59.8018   90.8523   10.8775 O.2     1  UNL1       -0.2501
      6 C          61.4579   88.9311   10.0342 C.3     1  UNL1        0.1073
      7 C          62.3979   86.5781    9.1826 C.3     1  UNL1        0.0307
      8 C          62.8874   84.2400   12.3517 C.ar    1  UNL1        0.1718
      9 C          62.4851   85.4076   11.5004 C.ar    1  UNL1        0.0358
     10 C          62.8002   85.4104   10.0339 C.ar    1  UNL1       -0.0188
     11 C          63.5174   84.2455    9.4186 C.ar    1  UNL1       -0.0010
     12 C          63.9197   83.0779   10.2699 C.ar    1  UNL1        0.0395
     13 C          63.6047   83.0751   11.7365 C.ar    1  UNL1        0.1677
     14 O          64.0070   81.9074   12.5878 O.3     1  UNL1       -0.5029
     15 H          64.4550   81.1797   12.2035 H       1  UNL1        0.2923
     16 C          63.6202   84.6447   14.8112 C.3     1  UNL1        0.2526
     17 O          62.5724   84.2372   13.8183 O.3     1  UNL1       -0.4684
     18 C          62.7425   89.7054   10.0491 C.3     1  UNL1        0.0378
     19 C          63.3609   90.1075   11.3552 C.ar    1  UNL1       -0.0154
     20 C          63.2473   89.2053   12.5481 C.ar    1  UNL1        0.0360
     21 C          63.8658   89.6074   13.8542 C.ar    1  UNL1        0.1749
     22 C          64.5979   90.9117   13.9672 C.ar    1  UNL1        0.2024
     23 O          65.2164   91.3139   15.2733 O.3     1  UNL1       -0.5009
     24 C          64.7116   91.8140   12.7743 C.ar    1  UNL1        0.1749
     25 C          64.0931   91.4118   11.4682 C.ar    1  UNL1        0.0360
     26 H          65.1454   90.7503   16.0185 H       1  UNL1        0.2924
     27 O          63.7522   88.7053   15.0471 O.3     1  UNL1       -0.4683
     28 C          63.1080   89.2046   16.3064 C.3     1  UNL1        0.2526
     29 O          65.4437   93.1183   12.8873 O.3     1  UNL1       -0.4683
     30 C          66.1861   93.6665   11.7048 C.3     1  UNL1        0.2526
@<TRIPOS>BOND
     1    16    17    1
     2    17     8    1
     3     8     9   ar
     4     9    10   ar
     5    10     7    1
     6     1     7    1
     7     1     2    1
     8     2     3    1
     9     3     4    1
    10     4     5    2
    11     4     6    1
    12     6    18    1
    13    18    19    1
    14    19    20   ar
    15    20    21   ar
    16    21    27    1
    17    27    28    1
    18    21    22   ar
    19    22    23    1
    20    22    24   ar
    21    24    29    1
    22    29    30    1
    23    24    25   ar
    24    10    11   ar
    25    11    12   ar
    26    12    13   ar
    27    13    14    1
    28    13     8   ar
    29     6     1    1
    30    25    19   ar
    31    23    26    1
    32    14    15    1
@<TRIPOS>MOLECULE
*****
 30 32 0 0 0
SMALL
GASTEIGER

@<TRIPOS>ATOM
      1 C          61.2676   87.5232    9.6310 C.3     1  UNL1        0.0591
      2 C          59.8063   87.2031    9.7419 C.3     1  UNL1        0.2092
      3 O          59.0914   88.4464   10.1813 O.3     1  UNL1       -0.4485
      4 C          60.1108   89.5350   10.3419 C.2     1  UNL1        0.3169
      5 O          59.8340   90.9464   10.7678 O.2     1  UNL1       -0.2501
      6 C          61.4557   88.9644   10.0018 C.3     1  UNL1        0.1073
      7 C          62.3505   86.5696    9.2212 C.3     1  UNL1        0.0307
      8 C          62.8895   84.4660   12.5431 C.ar    1  UNL1        0.1718
      9 C          62.4693   85.5671   11.6152 C.ar    1  UNL1        0.0358
     10 C          62.7707   85.4684   10.1491 C.ar    1  UNL1       -0.0188
     11 C          63.4923   84.2686    9.6109 C.ar    1  UNL1       -0.0010
     12 C          63.9125   83.1675   10.5387 C.ar    1  UNL1        0.0395
     13 C          63.6111   83.2662   12.0048 C.ar    1  UNL1        0.1677
     14 O          64.0313   82.1650   12.9327 O.3     1  UNL1       -0.5029
     15 H          64.4821   81.4155   12.5965 H       1  UNL1        0.2923
     16 C          63.6436   85.0437   14.9612 C.3     1  UNL1        0.2526
     17 O          62.5881   84.5647   14.0092 O.3     1  UNL1       -0.4684
     18 C          62.7599   89.7050   10.0280 C.3     1  UNL1        0.0378
     19 C          63.3692   90.1050   11.3390 C.ar    1  UNL1       -0.0154
     20 C          64.0930   91.4130   11.4617 C.ar    1  UNL1        0.0360
     21 C          64.7023   91.8130   12.7728 C.ar    1  UNL1        0.1749
     22 C          64.5877   90.9048   13.9611 C.ar    1  UNL1        0.2024
     23 O          65.1970   91.3047   15.2722 O.3     1  UNL1       -0.5009
     24 C          63.8639   89.5967   13.8384 C.ar    1  UNL1        0.1749
     25 C          63.2546   89.1968   12.5274 C.ar    1  UNL1        0.0360
     26 H          65.6491   92.1218   15.3488 H       1  UNL1        0.2924
     27 O          65.4261   93.1210   12.8955 O.3     1  UNL1       -0.4683
     28 C          66.1870   93.6698   11.7251 C.3     1  UNL1        0.2526
     29 O          63.7493   88.6885   15.0268 O.3     1  UNL1       -0.4683
     30 C          63.0740   89.1704   16.2765 C.3     1  UNL1        0.2526
@<TRIPOS>BOND
     1    16    17    1
     2    17     8    1
     3     8     9   ar
     4     9    10   ar
     5    10     7    1
     6     1     7    1
     7     1     2    1
     8     2     3    1
     9     3     4    1
    10     4     5    2
    11     4     6    1
    12     6    18    1
    13    18    19    1
    14    19    20   ar
    15    20    21   ar
    16    21    27    1
    17    27    28    1
    18    21    22   ar
    19    22    23    1
    20    22    24   ar
    21    24    29    1
    22    29    30    1
    23    24    25   ar
    24    10    11   ar
    25    11    12   ar
    26    12    13   ar
    27    13    14    1
    28    13     8   ar
    29     6     1    1
    30    25    19   ar
    31    23    26    1
    32    14    15    1
@<TRIPOS>MOLECULE
*****
 30 32 0 0 0
SMALL
GASTEIGER

@<TRIPOS>ATOM
      1 C          60.5183   87.0666    9.5545 C.3     1  UNL1        0.0591
      2 C          59.3708   87.1747    8.5945 C.3     1  UNL1        0.2092
      3 O          59.6547   86.2735    7.4294 O.3     1  UNL1       -0.4485
      4 C          60.9776   85.6085    7.6694 C.2     1  UNL1        0.3169
      5 O          61.6490   84.6258    6.7564 O.2     1  UNL1       -0.2501
      6 C          61.5113   86.0987    8.9827 C.3     1  UNL1        0.1073
      7 C          60.6496   87.7981   10.8574 C.3     1  UNL1        0.0307
      8 C          63.5060   90.0923   12.3831 C.ar    1  UNL1        0.1718
      9 C          62.4981   88.9907   12.2398 C.ar    1  UNL1        0.0358
     10 C          61.6575   88.8998   11.0008 C.ar    1  UNL1       -0.0188
     11 C          61.8248   89.9105    9.9051 C.ar    1  UNL1       -0.0010
     12 C          62.8327   91.0121   10.0485 C.ar    1  UNL1        0.0395
     13 C          63.6733   91.1030   11.2875 C.ar    1  UNL1        0.1677
     14 O          64.6812   92.2047   11.4308 O.3     1  UNL1       -0.5029
     15 H          64.7857   92.8360   10.7464 H       1  UNL1        0.2923
     16 C          64.3704   89.0440   14.5976 C.3     1  UNL1        0.2526
     17 O          64.3466   90.1832   13.6221 O.3     1  UNL1       -0.4684
     18 C          62.8101   85.6922    9.6136 C.3     1  UNL1        0.0378
     19 C          62.8123   84.7862   10.8090 C.ar    1  UNL1       -0.0154
     20 C          62.7508   85.3670   12.1905 C.ar    1  UNL1        0.0360
     21 C          62.7530   84.4609   13.3860 C.ar    1  UNL1        0.1749
     22 C          62.8166   82.9739   13.1997 C.ar    1  UNL1        0.2024
     23 O          62.8188   82.0677   14.3950 O.3     1  UNL1       -0.5009
     24 C          62.8781   82.3929   11.8181 C.ar    1  UNL1        0.1749
     25 C          62.8759   83.2991   10.6228 C.ar    1  UNL1        0.0360
     26 H          62.7804   82.4305   15.2581 H       1  UNL1        0.2924
     27 O          62.6915   85.0417   14.7675 O.3     1  UNL1       -0.4683
     28 C          63.9544   85.4499   15.4664 C.3     1  UNL1        0.2526
     29 O          62.9417   80.9059   11.6318 O.3     1  UNL1       -0.4683
     30 C          63.0192   80.3257   10.2507 C.3     1  UNL1        0.2526
@<TRIPOS>BOND
     1    16    17    1
     2    17     8    1
     3     8     9   ar
     4     9    10   ar
     5    10     7    1
     6     1     7    1
     7     1     2    1
     8     2     3    1
     9     3     4    1
    10     4     5    2
    11     4     6    1
    12     6    18    1
    13    18    19    1
    14    19    20   ar
    15    20    21   ar
    16    21    27    1
    17    27    28    1
    18    21    22   ar
    19    22    23    1
    20    22    24   ar
    21    24    29    1
    22    29    30    1
    23    24    25   ar
    24    10    11   ar
    25    11    12   ar
    26    12    13   ar
    27    13    14    1
    28    13     8   ar
    29     6     1    1
    30    25    19   ar
    31    23    26    1
    32    14    15    1
@<TRIPOS>MOLECULE
*****
 30 32 0 0 0
SMALL
GASTEIGER

@<TRIPOS>ATOM
      1 C          60.6035   87.1429    9.6481 C.3     1  UNL1        0.0591
      2 C          59.4366   87.3289    8.7240 C.3     1  UNL1        0.2092
      3 O          59.6534   86.4575    7.5224 O.3     1  UNL1       -0.4485
      4 C          60.9541   85.7329    7.7039 C.2     1  UNL1        0.3169
      5 O          61.5612   84.7563    6.7408 O.2     1  UNL1       -0.2501
      6 C          61.5413   86.1565    9.0176 C.3     1  UNL1        0.1073
      7 C          60.7982   87.8237   10.9704 C.3     1  UNL1        0.0307
      8 C          63.6397   90.1575   12.4636 C.ar    1  UNL1        0.1718
      9 C          62.6435   89.0438   12.3330 C.ar    1  UNL1        0.0358
     10 C          61.7945   88.9375   11.1010 C.ar    1  UNL1       -0.0188
     11 C          61.9416   89.9451    9.9996 C.ar    1  UNL1       -0.0010
     12 C          62.9378   91.0588   10.1302 C.ar    1  UNL1        0.0395
     13 C          63.7868   91.1650   11.3622 C.ar    1  UNL1        0.1677
     14 O          64.7831   92.2789   11.4928 O.3     1  UNL1       -0.5029
     15 H          64.8750   92.9083   10.8048 H       1  UNL1        0.2923
     16 C          64.1373   89.4705   14.9193 C.3     1  UNL1        0.2526
     17 O          64.4887   90.2637   13.6957 O.3     1  UNL1       -0.4684
     18 C          62.8386   85.6778    9.5988 C.3     1  UNL1        0.0378
     19 C          62.8368   84.7937   10.8106 C.ar    1  UNL1       -0.0154
     20 C          62.8884   83.3031   10.6516 C.ar    1  UNL1        0.0360
     21 C          62.8866   82.4190   11.8634 C.ar    1  UNL1        0.1749
     22 C          62.8332   83.0257   13.2342 C.ar    1  UNL1        0.2024
     23 O          62.8314   82.1417   14.4460 O.3     1  UNL1       -0.5009
     24 C          62.7816   84.5164   13.3933 C.ar    1  UNL1        0.1749
     25 C          62.7834   85.4004   12.1814 C.ar    1  UNL1        0.0360
     26 H          62.8636   81.2105   14.3467 H       1  UNL1        0.2924
     27 O          62.9382   80.9284   11.7045 O.3     1  UNL1       -0.4683
     28 C          63.0669   80.3239   10.3377 C.3     1  UNL1        0.2526
     29 O          62.7282   85.1230   14.7641 O.3     1  UNL1       -0.4683
     30 C          63.9976   85.3744   15.5229 C.3     1  UNL1        0.2526
@<TRIPOS>BOND
     1    16    17    1
     2    17     8    1
     3     8     9   ar
     4     9    10   ar
     5    10     7    1
     6     1     7    1
     7     1     2    1
     8     2     3    1
     9     3     4    1
    10     4     5    2
    11     4     6    1
    12     6    18    1
    13    18    19    1
    14    19    20   ar
    15    20    21   ar
    16    21    27    1
    17    27    28    1
    18    21    22   ar
    19    22    23    1
    20    22    24   ar
    21    24    29    1
    22    29    30    1
    23    24    25   ar
    24    10    11   ar
    25    11    12   ar
    26    12    13   ar
    27    13    14    1
    28    13     8   ar
    29     6     1    1
    30    25    19   ar
    31    23    26    1
    32    14    15    1
@<TRIPOS>MOLECULE
*****
 30 32 0 0 0
SMALL
GASTEIGER

@<TRIPOS>ATOM
      1 C          63.9141   88.6413   15.6443 C.3     1  UNL1        0.0591
      2 C          62.8554   89.1798   16.5603 C.3     1  UNL1        0.2092
      3 O          62.1670   88.0153   17.2083 O.3     1  UNL1       -0.4485
      4 C          62.8002   86.7570   16.6928 C.2     1  UNL1        0.3169
      5 O          62.4203   85.3576   17.0765 O.2     1  UNL1       -0.2501
      6 C          63.8800   87.1439   15.7261 C.3     1  UNL1        0.1073
      7 C          64.8437   89.4569   14.7954 C.3     1  UNL1        0.0307
      8 C          64.4881   91.8450   11.6457 C.ar    1  UNL1        0.1718
      9 C          64.9632   91.2858   12.9539 C.ar    1  UNL1        0.0358
     10 C          64.3686   90.0161   13.4870 C.ar    1  UNL1       -0.0188
     11 C          63.2989   89.3055   12.7119 C.ar    1  UNL1       -0.0010
     12 C          62.8239   89.8647   11.4037 C.ar    1  UNL1        0.0395
     13 C          63.4185   91.1344   10.8705 C.ar    1  UNL1        0.1677
     14 O          62.9434   91.6936    9.5622 O.3     1  UNL1       -0.5029
     15 H          62.2752   91.2497    9.0780 H       1  UNL1        0.2923
     16 C          66.0988   93.8647   11.9218 C.3     1  UNL1        0.2526
     17 O          65.0827   93.1147   11.1125 O.3     1  UNL1       -0.4684
     18 C          64.7694   86.1992   14.9735 C.3     1  UNL1        0.0378
     19 C          64.1722   85.1965   14.0312 C.ar    1  UNL1       -0.0154
     20 C          64.3845   83.7300   14.2633 C.ar    1  UNL1        0.0360
     21 C          63.7872   82.7273   13.3209 C.ar    1  UNL1        0.1749
     22 C          62.9777   83.1913   12.1465 C.ar    1  UNL1        0.2024
     23 O          62.3804   82.1887   11.2042 O.3     1  UNL1       -0.5009
     24 C          62.7653   84.6580   11.9144 C.ar    1  UNL1        0.1749
     25 C          63.3626   85.6606   12.8568 C.ar    1  UNL1        0.0360
     26 H          62.5130   81.2726   11.3491 H       1  UNL1        0.2924
     27 O          63.9995   81.2607   13.5530 O.3     1  UNL1       -0.4683
     28 C          62.8270   80.3683   13.8337 C.3     1  UNL1        0.2526
     29 O          61.9557   85.1221   10.7400 O.3     1  UNL1       -0.4683
     30 C          61.1967   86.4137   10.8158 C.3     1  UNL1        0.2526
@<TRIPOS>BOND
     1    16    17    1
     2    17     8    1
     3     8     9   ar
     4     9    10   ar
     5    10     7    1
     6     1     7    1
     7     1     2    1
     8     2     3    1
     9     3     4    1
    10     4     5    2
    11     4     6    1
    12     6    18    1
    13    18    19    1
    14    19    20   ar
    15    20    21   ar
    16    21    27    1
    17    27    28    1
    18    21    22   ar
    19    22    23    1
    20    22    24   ar
    21    24    29    1
    22    29    30    1
    23    24    25   ar
    24    10    11   ar
    25    11    12   ar
    26    12    13   ar
    27    13    14    1
    28    13     8   ar
    29     6     1    1
    30    25    19   ar
    31    23    26    1
    32    14    15    1
@<TRIPOS>MOLECULE
*****
 30 32 0 0 0
SMALL
GASTEIGER

@<TRIPOS>ATOM
      1 C          63.9286   88.6567   15.6334 C.3     1  UNL1        0.0591
      2 C          62.8800   89.1828   16.5681 C.3     1  UNL1        0.2092
      3 O          62.2076   88.0099   17.2178 O.3     1  UNL1       -0.4485
      4 C          62.8406   86.7589   16.6848 C.2     1  UNL1        0.3169
      5 O          62.4743   85.3547   17.0643 O.2     1  UNL1       -0.2501
      6 C          63.9042   87.1586   15.7055 C.3     1  UNL1        0.1073
      7 C          64.8413   89.4834   14.7770 C.3     1  UNL1        0.0307
      8 C          64.4468   91.8235   11.5960 C.ar    1  UNL1        0.1718
      9 C          64.9322   91.2885   12.9105 C.ar    1  UNL1        0.0358
     10 C          64.3558   90.0184   13.4624 C.ar    1  UNL1       -0.0188
     11 C          63.2938   89.2833   12.6996 C.ar    1  UNL1       -0.0010
     12 C          62.8083   89.8183   11.3851 C.ar    1  UNL1        0.0395
     13 C          63.3848   91.0884   10.8333 C.ar    1  UNL1        0.1677
     14 O          62.8992   91.6234    9.5187 O.3     1  UNL1       -0.5029
     15 H          62.2358   91.1642    9.0423 H       1  UNL1        0.2923
     16 C          66.3881   93.0896   10.4220 C.3     1  UNL1        0.2526
     17 O          65.0232   93.0936   11.0442 O.3     1  UNL1       -0.4684
     18 C          64.7883   86.2243   14.9339 C.3     1  UNL1        0.0378
     19 C          64.1827   85.2135   14.0057 C.ar    1  UNL1       -0.0154
     20 C          63.3660   85.6674   12.8323 C.ar    1  UNL1        0.0360
     21 C          62.7603   84.6565   11.9041 C.ar    1  UNL1        0.1749
     22 C          62.9715   83.1919   12.1493 C.ar    1  UNL1        0.2024
     23 O          62.3659   82.1811   11.2212 O.3     1  UNL1       -0.5009
     24 C          63.7883   82.7380   13.3228 C.ar    1  UNL1        0.1749
     25 C          64.3938   83.7488   14.2509 C.ar    1  UNL1        0.0360
     26 H          61.8557   82.4646   10.4882 H       1  UNL1        0.2924
     27 O          61.9436   85.1104   10.7307 O.3     1  UNL1       -0.4683
     28 C          61.1689   86.3925   10.8071 C.3     1  UNL1        0.2526
     29 O          63.9994   81.2733   13.5681 O.3     1  UNL1       -0.4683
     30 C          62.8252   80.3828   13.8478 C.3     1  UNL1        0.2526
@<TRIPOS>BOND
     1    16    17    1
     2    17     8    1
     3     8     9   ar
     4     9    10   ar
     5    10     7    1
     6     1     7    1
     7     1     2    1
     8     2     3    1
     9     3     4    1
    10     4     5    2
    11     4     6    1
    12     6    18    1
    13    18    19    1
    14    19    20   ar
    15    20    21   ar
    16    21    27    1
    17    27    28    1
    18    21    22   ar
    19    22    23    1
    20    22    24   ar
    21    24    29    1
    22    29    30    1
    23    24    25   ar
    24    10    11   ar
    25    11    12   ar
    26    12    13   ar
    27    13    14    1
    28    13     8   ar
    29     6     1    1
    30    25    19   ar
    31    23    26    1
    32    14    15    1
@<TRIPOS>MOLECULE
*****
 30 32 0 0 0
SMALL
GASTEIGER

@<TRIPOS>ATOM
      1 C          62.9175   89.4782   11.7736 C.3     1  UNL1        0.0591
      2 C          63.0765   90.7916   11.0667 C.3     1  UNL1        0.2092
      3 O          62.0725   90.8434    9.9535 O.3     1  UNL1       -0.4485
      4 C          61.2929   89.5621    9.9724 C.2     1  UNL1        0.3169
      5 O          60.1854   89.1898    9.0316 O.2     1  UNL1       -0.2501
      6 C          61.8151   88.7184   11.0973 C.3     1  UNL1        0.1073
      7 C          63.7199   89.0074   12.9503 C.3     1  UNL1        0.0307
      8 C          65.3323   91.9507   15.0686 C.ar    1  UNL1        0.1718
      9 C          65.0463   91.0138   13.9327 C.ar    1  UNL1        0.0358
     10 C          64.0058   89.9443   14.0863 C.ar    1  UNL1       -0.0188
     11 C          63.2512   89.8118   15.3758 C.ar    1  UNL1       -0.0010
     12 C          63.5372   90.7487   16.5118 C.ar    1  UNL1        0.0395
     13 C          64.5777   91.8181   16.3581 C.ar    1  UNL1        0.1677
     14 O          64.8637   92.7550   17.4942 O.3     1  UNL1       -0.5029
     15 H          64.3923   92.6722   18.2997 H       1  UNL1        0.2923
     16 C          66.5434   93.7169   13.5976 C.3     1  UNL1        0.2526
     17 O          66.3728   93.0201   14.9150 O.3     1  UNL1       -0.4684
     18 C          61.3215   87.3542   11.4789 C.3     1  UNL1        0.0378
     19 C          62.1174   86.1379   11.1087 C.ar    1  UNL1       -0.0154
     20 C          62.7157   85.2777   12.1820 C.ar    1  UNL1        0.0360
     21 C          63.5116   84.0613   11.8116 C.ar    1  UNL1        0.1749
     22 C          63.7091   83.7052   10.3680 C.ar    1  UNL1        0.2024
     23 O          64.5049   82.4889    9.9976 O.3     1  UNL1       -0.5009
     24 C          63.1108   84.5654    9.2946 C.ar    1  UNL1        0.1749
     25 C          62.3150   85.7818    9.6649 C.ar    1  UNL1        0.0360
     26 H          64.8787   81.9515   10.6681 H       1  UNL1        0.2924
     27 O          64.1098   83.2011   12.8849 O.3     1  UNL1       -0.4683
     28 C          63.3743   81.9873   13.3703 C.3     1  UNL1        0.2526
     29 O          63.3083   84.2094    7.8509 O.3     1  UNL1       -0.4683
     30 C          62.4022   84.7882    6.8050 C.3     1  UNL1        0.2526
@<TRIPOS>BOND
     1    16    17    1
     2    17     8    1
     3     8     9   ar
     4     9    10   ar
     5    10     7    1
     6     1     7    1
     7     1     2    1
     8     2     3    1
     9     3     4    1
    10     4     5    2
    11     4     6    1
    12     6    18    1
    13    18    19    1
    14    19    20   ar
    15    20    21   ar
    16    21    27    1
    17    27    28    1
    18    21    22   ar
    19    22    23    1
    20    22    24   ar
    21    24    29    1
    22    29    30    1
    23    24    25   ar
    24    10    11   ar
    25    11    12   ar
    26    12    13   ar
    27    13    14    1
    28    13     8   ar
    29     6     1    1
    30    25    19   ar
    31    23    26    1
    32    14    15    1
