@<TRIPOS>MOLECULE
*****
 33 35 0 0 0
SMALL
GASTEIGER

@<TRIPOS>ATOM
      1 C          64.5115   90.3364   13.8530 C.ar    1  UNL1        0.1724
      2 C          64.2355   88.8621   13.8546 C.ar    1  UNL1        0.0412
      3 C          63.5475   88.2266   12.6829 C.ar    1  UNL1        0.0152
      4 C          63.1356   89.0655   11.5096 C.ar    1  UNL1       -0.0157
      5 C          63.4117   90.5398   11.5081 C.ar    1  UNL1        0.0359
      6 C          64.0996   91.1753   12.6797 C.ar    1  UNL1        0.1719
      7 C          62.4476   88.4300   10.3380 C.3     1  UNL1        0.0490
      8 C          62.1715   86.9556   10.3395 C.3     1  UNL1        0.0898
      9 N          62.5835   86.1167   11.5129 N.ar    1  UNL1       -0.3274
     10 C          62.3074   84.6423   11.5144 C.ar    1  UNL1        0.0801
     11 C          62.7193   83.8034   12.6877 C.ar    1  UNL1        0.0701
     12 C          63.4073   84.4389   13.8594 C.ar    1  UNL1        0.1996
     13 O          63.8192   83.6000   15.0327 O.2     1  UNL1       -0.2864
     14 C          63.6833   85.9133   13.8578 C.ar    1  UNL1        0.0593
     15 C          63.2714   86.7522   12.6845 C.ar    1  UNL1        0.0628
     16 C          61.4836   86.3201    9.1679 C.3     1  UNL1        0.0211
     17 C          60.0147   86.5353    8.9535 C.3     1  UNL1        0.0019
     18 C          62.2646   85.4695    8.2105 C.3     1  UNL1        0.0019
     19 C          62.4432   82.3291   12.6893 C.2     1  UNL1        0.0774
     20 O          61.6213   81.7211   13.7870 O.co2   1  UNL1       -0.5444
     21 O          62.9891   81.4626   11.5933 O.co2   1  UNL1       -0.5444
     22 C          66.6166   91.4465   14.8954 C.3     1  UNL1        0.2526
     23 O          65.1995   90.9719   15.0247 O.3     1  UNL1       -0.4684
     24 O          64.3757   92.6497   12.6781 O.3     1  UNL1       -0.4724
     25 C          65.4116   93.2178   11.7539 C.3     1  UNL1        0.2056
     26 C          66.2858   94.3478   12.2110 C.3     1  UNL1        0.0473
     27 C          66.1877   95.6885   11.5454 C.3     1  UNL1        0.0038
     28 C          66.4276   95.8126   10.0700 C.3     1  UNL1        0.0005
     29 C          67.6490   95.1967    9.4542 C.3     1  UNL1        0.0059
     30 C          67.5416   93.8959    8.7152 C.3     1  UNL1        0.0417
     31 C          68.4414   92.7515    9.0767 C.2     1  UNL1        0.0503
     32 O          69.0894   91.9368    7.9967 O.co2   1  UNL1       -0.5492
     33 O          68.6934   92.4218   10.5182 O.co2   1  UNL1       -0.5492
@<TRIPOS>UNITY_ATOM_ATTR
20 1
charge -1
32 1
charge -1
@<TRIPOS>BOND
     1    22    23    1
     2    23     1    1
     3     1     2   ar
     4     2     3   ar
     5     3     4   ar
     6     4     5   ar
     7     5     6   ar
     8     6    24    1
     9    24    25    1
    10    25    26    1
    11    26    27    1
    12    27    28    1
    13    28    29    1
    14    29    30    1
    15    30    31    1
    16    31    32   ar
    17    31    33   ar
    18     4     7    1
    19     7     8    1
    20     8    16    1
    21    16    17    1
    22    16    18    1
    23     8     9    1
    24     9    10   ar
    25    10    11   ar
    26    11    19    1
    27    19    20   ar
    28    19    21   ar
    29    11    12   ar
    30    12    13    2
    31    12    14   ar
    32    14    15   ar
    33     6     1   ar
    34    15     9   ar
    35    15     3    1
@<TRIPOS>MOLECULE
*****
 33 35 0 0 0
SMALL
GASTEIGER

@<TRIPOS>ATOM
      1 C          65.0105   90.7022   14.1508 C.ar    1  UNL1        0.1724
      2 C          64.6631   89.2433   14.1794 C.ar    1  UNL1        0.0412
      3 C          63.8505   88.6440   13.0701 C.ar    1  UNL1        0.0152
      4 C          63.3854   89.5036   11.9322 C.ar    1  UNL1       -0.0157
      5 C          63.7329   90.9624   11.9037 C.ar    1  UNL1        0.0359
      6 C          64.5454   91.5618   13.0130 C.ar    1  UNL1        0.1719
      7 C          62.5729   88.9042   10.8229 C.3     1  UNL1        0.0490
      8 C          62.2255   87.4453   10.8514 C.3     1  UNL1        0.0898
      9 N          62.6906   86.5857   11.9894 N.ar    1  UNL1       -0.3274
     10 C          62.3432   85.1268   12.0179 C.ar    1  UNL1        0.0801
     11 C          62.8083   84.2671   13.1558 C.ar    1  UNL1        0.0701
     12 C          63.6208   84.8665   14.2651 C.ar    1  UNL1        0.1996
     13 O          64.0859   84.0069   15.4030 O.2     1  UNL1       -0.2864
     14 C          63.9682   86.3255   14.2365 C.ar    1  UNL1        0.0593
     15 C          63.5031   87.1850   13.0987 C.ar    1  UNL1        0.0628
     16 C          61.4129   86.8460    9.7421 C.3     1  UNL1        0.0211
     17 C          59.9433   87.1314    9.6502 C.3     1  UNL1        0.0019
     18 C          62.0702   85.9611    8.7247 C.3     1  UNL1        0.0019
     19 C          62.4608   82.8082   13.1844 C.2     1  UNL1        0.0774
     20 O          61.9748   82.1778   14.4557 O.co2   1  UNL1       -0.5444
     21 O          62.5995   81.9798   11.9416 O.co2   1  UNL1       -0.5444
     22 C          67.2928   91.5342   15.0720 C.3     1  UNL1        0.2526
     23 O          65.8230   91.3016   15.2602 O.3     1  UNL1       -0.4684
     24 O          64.8928   93.0208   12.9844 O.3     1  UNL1       -0.4724
     25 C          66.0953   93.4906   12.2207 C.3     1  UNL1        0.2056
     26 C          66.7981   92.5572   11.2799 C.3     1  UNL1        0.0473
     27 C          67.4453   93.0920   10.0370 C.3     1  UNL1        0.0038
     28 C          66.8480   94.2713    9.3283 C.3     1  UNL1        0.0005
     29 C          67.6303   95.5448    9.2006 C.3     1  UNL1        0.0059
     30 C          67.0280   96.8432    9.6493 C.3     1  UNL1        0.0417
     31 C          65.7747   96.8435   10.4734 C.2     1  UNL1        0.0503
     32 O          64.4344   96.8423    9.8000 O.co2   1  UNL1       -0.5492
     33 O          65.8617   96.8449   11.9709 O.co2   1  UNL1       -0.5492
@<TRIPOS>UNITY_ATOM_ATTR
20 1
charge -1
32 1
charge -1
@<TRIPOS>BOND
     1    22    23    1
     2    23     1    1
     3     1     2   ar
     4     2     3   ar
     5     3     4   ar
     6     4     5   ar
     7     5     6   ar
     8     6    24    1
     9    24    25    1
    10    25    26    1
    11    26    27    1
    12    27    28    1
    13    28    29    1
    14    29    30    1
    15    30    31    1
    16    31    32   ar
    17    31    33   ar
    18     4     7    1
    19     7     8    1
    20     8    16    1
    21    16    17    1
    22    16    18    1
    23     8     9    1
    24     9    10   ar
    25    10    11   ar
    26    11    19    1
    27    19    20   ar
    28    19    21   ar
    29    11    12   ar
    30    12    13    2
    31    12    14   ar
    32    14    15   ar
    33     6     1   ar
    34    15     9   ar
    35    15     3    1
@<TRIPOS>MOLECULE
*****
 33 35 0 0 0
SMALL
GASTEIGER

@<TRIPOS>ATOM
      1 C          61.3123   89.8201   11.9213 C.ar    1  UNL1        0.1724
      2 C          62.4085   90.3601   12.7911 C.ar    1  UNL1        0.0412
      3 C          63.5792   91.0644   12.1719 C.ar    1  UNL1        0.0152
      4 C          63.6537   91.2288   10.6828 C.ar    1  UNL1       -0.0157
      5 C          62.5575   90.6887    9.8130 C.ar    1  UNL1        0.0359
      6 C          61.3868   89.9844   10.4322 C.ar    1  UNL1        0.1719
      7 C          64.8243   91.9331   10.0636 C.3     1  UNL1        0.0490
      8 C          65.9205   92.4732   10.9334 C.3     1  UNL1        0.0898
      9 N          65.8461   92.3089   12.4226 N.ar    1  UNL1       -0.3274
     10 C          66.9423   92.8489   13.2925 C.ar    1  UNL1        0.0801
     11 C          66.8678   92.6846   14.7816 C.ar    1  UNL1        0.0701
     12 C          65.6972   91.9802   15.4009 C.ar    1  UNL1        0.1996
     13 O          65.6227   91.8159   16.8899 O.2     1  UNL1       -0.2864
     14 C          64.6009   91.4402   14.5309 C.ar    1  UNL1        0.0593
     15 C          64.6754   91.6045   13.0418 C.ar    1  UNL1        0.0628
     16 C          67.0912   93.1775   10.3142 C.3     1  UNL1        0.0211
     17 C          68.2866   92.3916    9.8633 C.3     1  UNL1        0.0019
     18 C          67.0664   94.6679   10.1459 C.3     1  UNL1        0.0019
     19 C          67.9640   93.2246   15.6515 C.2     1  UNL1        0.0774
     20 O          68.8833   92.2827   16.3709 O.co2   1  UNL1       -0.5444
     21 O          68.1409   94.7065   15.8019 O.co2   1  UNL1       -0.5444
     22 C          58.7696   89.7141   12.4440 C.3     1  UNL1        0.2526
     23 O          60.1417   89.1157   12.5405 O.3     1  UNL1       -0.4684
     24 O          60.2906   89.4443    9.5622 O.3     1  UNL1       -0.4724
     25 C          60.3327   88.0174    9.1018 C.3     1  UNL1        0.2056
     26 C          61.4959   87.1446    9.4696 C.3     1  UNL1        0.0473
     27 C          61.3202   86.0448   10.4743 C.3     1  UNL1        0.0038
     28 C          62.3543   85.8296   11.5393 C.3     1  UNL1        0.0005
     29 C          62.7335   84.4364   11.9459 C.3     1  UNL1        0.0059
     30 C          63.7043   84.2209   13.0689 C.3     1  UNL1        0.0417
     31 C          63.1993   83.9428   14.4537 C.2     1  UNL1        0.0503
     32 O          61.9998   84.6766   14.9761 O.co2   1  UNL1       -0.5492
     33 O          63.8939   82.9310   15.3162 O.co2   1  UNL1       -0.5492
@<TRIPOS>UNITY_ATOM_ATTR
20 1
charge -1
32 1
charge -1
@<TRIPOS>BOND
     1    22    23    1
     2    23     1    1
     3     1     2   ar
     4     2     3   ar
     5     3     4   ar
     6     4     5   ar
     7     5     6   ar
     8     6    24    1
     9    24    25    1
    10    25    26    1
    11    26    27    1
    12    27    28    1
    13    28    29    1
    14    29    30    1
    15    30    31    1
    16    31    32   ar
    17    31    33   ar
    18     4     7    1
    19     7     8    1
    20     8    16    1
    21    16    17    1
    22    16    18    1
    23     8     9    1
    24     9    10   ar
    25    10    11   ar
    26    11    19    1
    27    19    20   ar
    28    19    21   ar
    29    11    12   ar
    30    12    13    2
    31    12    14   ar
    32    14    15   ar
    33     6     1   ar
    34    15     9   ar
    35    15     3    1
@<TRIPOS>MOLECULE
*****
 33 35 0 0 0
SMALL
GASTEIGER

@<TRIPOS>ATOM
      1 C          61.0379   88.3096    9.1977 C.ar    1  UNL1        0.1724
      2 C          61.9057   89.0873   10.1422 C.ar    1  UNL1        0.0412
      3 C          62.4988   88.4130   11.3437 C.ar    1  UNL1        0.0152
      4 C          62.2242   86.9609   11.6006 C.ar    1  UNL1       -0.0157
      5 C          61.3564   86.1832   10.6562 C.ar    1  UNL1        0.0359
      6 C          60.7633   86.8576    9.4547 C.ar    1  UNL1        0.1719
      7 C          62.8173   86.2866   12.8021 C.3     1  UNL1        0.0490
      8 C          63.6851   87.0643   13.7466 C.3     1  UNL1        0.0898
      9 N          63.9598   88.5164   13.4896 N.ar    1  UNL1       -0.3274
     10 C          64.8276   89.2941   14.4341 C.ar    1  UNL1        0.0801
     11 C          65.1023   90.7462   14.1771 C.ar    1  UNL1        0.0701
     12 C          64.5092   91.4206   12.9757 C.ar    1  UNL1        0.1996
     13 O          64.7839   92.8726   12.7187 O.2     1  UNL1       -0.2864
     14 C          63.6414   90.6428   12.0312 C.ar    1  UNL1        0.0593
     15 C          63.3667   89.1908   12.2882 C.ar    1  UNL1        0.0628
     16 C          64.2782   86.3900   14.9480 C.3     1  UNL1        0.0211
     17 C          65.5653   85.6301   14.8225 C.3     1  UNL1        0.0019
     18 C          63.5841   86.4755   16.2750 C.3     1  UNL1        0.0019
     19 C          65.9701   91.5239   15.1216 C.2     1  UNL1        0.0774
     20 O          67.4614   91.3722   15.0674 O.co2   1  UNL1       -0.5444
     21 O          65.3466   92.4534   16.1203 O.co2   1  UNL1       -0.5444
     22 C          59.0280   88.6953    7.5974 C.3     1  UNL1        0.2526
     23 O          60.4448   88.9840    7.9963 O.3     1  UNL1       -0.4684
     24 O          59.8954   86.0798    8.5102 O.3     1  UNL1       -0.4724
     25 C          60.5094   85.3668    7.3421 C.3     1  UNL1        0.2056
     26 C          61.9950   85.4035    7.1374 C.3     1  UNL1        0.0473
     27 C          62.8557   84.3071    7.6913 C.3     1  UNL1        0.0038
     28 C          63.5100   84.4716    9.0309 C.3     1  UNL1        0.0005
     29 C          63.9297   83.2630    9.8142 C.3     1  UNL1        0.0059
     30 C          64.2835   83.3957   11.2658 C.3     1  UNL1        0.0417
     31 C          63.7036   82.4434   12.2691 C.2     1  UNL1        0.0503
     32 O          63.8734   82.7047   13.7364 O.co2   1  UNL1       -0.5492
     33 O          62.9538   81.2299   11.8052 O.co2   1  UNL1       -0.5492
@<TRIPOS>UNITY_ATOM_ATTR
20 1
charge -1
32 1
charge -1
@<TRIPOS>BOND
     1    22    23    1
     2    23     1    1
     3     1     2   ar
     4     2     3   ar
     5     3     4   ar
     6     4     5   ar
     7     5     6   ar
     8     6    24    1
     9    24    25    1
    10    25    26    1
    11    26    27    1
    12    27    28    1
    13    28    29    1
    14    29    30    1
    15    30    31    1
    16    31    32   ar
    17    31    33   ar
    18     4     7    1
    19     7     8    1
    20     8    16    1
    21    16    17    1
    22    16    18    1
    23     8     9    1
    24     9    10   ar
    25    10    11   ar
    26    11    19    1
    27    19    20   ar
    28    19    21   ar
    29    11    12   ar
    30    12    13    2
    31    12    14   ar
    32    14    15   ar
    33     6     1   ar
    34    15     9   ar
    35    15     3    1
@<TRIPOS>MOLECULE
*****
 33 35 0 0 0
SMALL
GASTEIGER

@<TRIPOS>ATOM
      1 C          62.9501   83.8097   12.1979 C.ar    1  UNL1        0.1724
      2 C          62.2063   84.5665   11.1378 C.ar    1  UNL1        0.0412
      3 C          62.2298   86.0663   11.1307 C.ar    1  UNL1        0.0152
      4 C          62.9972   86.8093   12.1838 C.ar    1  UNL1       -0.0157
      5 C          63.7410   86.0525   13.2439 C.ar    1  UNL1        0.0359
      6 C          63.7175   84.5527   13.2510 C.ar    1  UNL1        0.1719
      7 C          63.0207   88.3091   12.1767 C.3     1  UNL1        0.0490
      8 C          62.2769   89.0659   11.1165 C.3     1  UNL1        0.0898
      9 N          61.5095   88.3229   10.0634 N.ar    1  UNL1       -0.3274
     10 C          60.7656   89.0796    9.0033 C.ar    1  UNL1        0.0801
     11 C          59.9982   88.3366    7.9501 C.ar    1  UNL1        0.0701
     12 C          59.9746   86.8368    7.9572 C.ar    1  UNL1        0.1996
     13 O          59.2073   86.0938    6.9041 O.2     1  UNL1       -0.2864
     14 C          60.7185   86.0800    9.0174 C.ar    1  UNL1        0.0593
     15 C          61.4859   86.8231   10.0705 C.ar    1  UNL1        0.0628
     16 C          62.3005   90.5657   11.1095 C.3     1  UNL1        0.0211
     17 C          63.5605   91.2943   10.7470 C.3     1  UNL1        0.0019
     18 C          61.0639   91.3369   11.4649 C.3     1  UNL1        0.0019
     19 C          59.2544   89.0934    6.8900 C.2     1  UNL1        0.0774
     20 O          57.7597   88.9973    6.8090 O.co2   1  UNL1       -0.5444
     21 O          60.0052   89.9463    5.9108 O.co2   1  UNL1       -0.5444
     22 C          62.0061   81.5786   13.1366 C.3     1  UNL1        0.2526
     23 O          62.9265   82.3099   12.2050 O.3     1  UNL1       -0.4684
     24 O          64.4614   83.7959   14.3112 O.3     1  UNL1       -0.4724
     25 C          63.8917   83.6874   15.6946 C.3     1  UNL1        0.2056
     26 C          62.9164   84.7153   16.1868 C.3     1  UNL1        0.0473
     27 C          63.4045   85.8982   16.9694 C.3     1  UNL1        0.0038
     28 C          62.5437   87.1200   17.0969 C.3     1  UNL1        0.0005
     29 C          63.1653   88.4842   17.0453 C.3     1  UNL1        0.0059
     30 C          63.4904   89.1106   15.7217 C.3     1  UNL1        0.0417
     31 C          63.6136   90.6011   15.6075 C.2     1  UNL1        0.0503
     32 O          63.8162   91.2362   14.2638 O.co2   1  UNL1       -0.5492
     33 O          63.5343   91.4567   16.8371 O.co2   1  UNL1       -0.5492
@<TRIPOS>UNITY_ATOM_ATTR
20 1
charge -1
32 1
charge -1
@<TRIPOS>BOND
     1    22    23    1
     2    23     1    1
     3     1     2   ar
     4     2     3   ar
     5     3     4   ar
     6     4     5   ar
     7     5     6   ar
     8     6    24    1
     9    24    25    1
    10    25    26    1
    11    26    27    1
    12    27    28    1
    13    28    29    1
    14    29    30    1
    15    30    31    1
    16    31    32   ar
    17    31    33   ar
    18     4     7    1
    19     7     8    1
    20     8    16    1
    21    16    17    1
    22    16    18    1
    23     8     9    1
    24     9    10   ar
    25    10    11   ar
    26    11    19    1
    27    19    20   ar
    28    19    21   ar
    29    11    12   ar
    30    12    13    2
    31    12    14   ar
    32    14    15   ar
    33     6     1   ar
    34    15     9   ar
    35    15     3    1
@<TRIPOS>MOLECULE
*****
 33 35 0 0 0
SMALL
GASTEIGER

@<TRIPOS>ATOM
      1 C          62.3588   88.6913   10.5481 C.ar    1  UNL1        0.1724
      2 C          63.0528   90.0204   10.5071 C.ar    1  UNL1        0.0412
      3 C          63.8479   90.4881   11.6900 C.ar    1  UNL1        0.0152
      4 C          63.9489   89.6267   12.9138 C.ar    1  UNL1       -0.0157
      5 C          63.2549   88.2976   12.9547 C.ar    1  UNL1        0.0359
      6 C          62.4598   87.8299   11.7719 C.ar    1  UNL1        0.1719
      7 C          64.7440   90.0944   14.0966 C.3     1  UNL1        0.0490
      8 C          65.4380   91.4235   14.0556 C.3     1  UNL1        0.0898
      9 N          65.3370   92.2850   12.8318 N.ar    1  UNL1       -0.3274
     10 C          66.0310   93.6141   12.7908 C.ar    1  UNL1        0.0801
     11 C          65.9300   94.4756   11.5670 C.ar    1  UNL1        0.0701
     12 C          65.1349   94.0079   10.3842 C.ar    1  UNL1        0.1996
     13 O          65.0339   94.8693    9.1604 O.2     1  UNL1       -0.2864
     14 C          64.4409   92.6787   10.4252 C.ar    1  UNL1        0.0593
     15 C          64.5419   91.8173   11.6490 C.ar    1  UNL1        0.0628
     16 C          66.2331   91.8913   15.2385 C.3     1  UNL1        0.0211
     17 C          67.7267   91.7536   15.2400 C.3     1  UNL1        0.0019
     18 C          65.5344   92.4967   16.4198 C.3     1  UNL1        0.0019
     19 C          66.6240   95.8047   11.5260 C.2     1  UNL1        0.0774
     20 O          66.2978   96.8529   12.5482 O.co2   1  UNL1       -0.5444
     21 O          67.6443   96.0857   10.4629 O.co2   1  UNL1       -0.5444
     22 C          60.3062   88.9422    8.9752 C.3     1  UNL1        0.2526
     23 O          61.5637   88.2236    9.3652 O.3     1  UNL1       -0.4684
     24 O          61.7658   86.5007   11.8129 O.3     1  UNL1       -0.4724
     25 C          62.4000   85.3033   11.1694 C.3     1  UNL1        0.2056
     26 C          62.6888   84.0782   11.9855 C.3     1  UNL1        0.0473
     27 C          63.0815   84.2126   13.4269 C.3     1  UNL1        0.0038
     28 C          64.2977   85.0063   13.8020 C.3     1  UNL1        0.0005
     29 C          64.4610   85.5101   15.2055 C.3     1  UNL1        0.0059
     30 C          63.3193   85.4160   16.1738 C.3     1  UNL1        0.0417
     31 C          62.9534   86.5998   17.0190 C.2     1  UNL1        0.0503
     32 O          62.2922   86.3954   18.3499 O.co2   1  UNL1       -0.5492
     33 O          63.2485   87.9881   16.5335 O.co2   1  UNL1       -0.5492
@<TRIPOS>UNITY_ATOM_ATTR
20 1
charge -1
32 1
charge -1
@<TRIPOS>BOND
     1    22    23    1
     2    23     1    1
     3     1     2   ar
     4     2     3   ar
     5     3     4   ar
     6     4     5   ar
     7     5     6   ar
     8     6    24    1
     9    24    25    1
    10    25    26    1
    11    26    27    1
    12    27    28    1
    13    28    29    1
    14    29    30    1
    15    30    31    1
    16    31    32   ar
    17    31    33   ar
    18     4     7    1
    19     7     8    1
    20     8    16    1
    21    16    17    1
    22    16    18    1
    23     8     9    1
    24     9    10   ar
    25    10    11   ar
    26    11    19    1
    27    19    20   ar
    28    19    21   ar
    29    11    12   ar
    30    12    13    2
    31    12    14   ar
    32    14    15   ar
    33     6     1   ar
    34    15     9   ar
    35    15     3    1
@<TRIPOS>MOLECULE
*****
 33 35 0 0 0
SMALL
GASTEIGER

@<TRIPOS>ATOM
      1 C          61.9133   92.5367    2.3006 C.ar    1  UNL1        0.1724
      2 C          62.2325   92.8605    0.8712 C.ar    1  UNL1        0.0412
      3 C          61.1310   93.2264   -0.0789 C.ar    1  UNL1        0.0152
      4 C          59.7103   93.2686    0.4003 C.ar    1  UNL1       -0.0157
      5 C          59.3911   92.9448    1.8297 C.ar    1  UNL1        0.0359
      6 C          60.4926   92.5788    2.7798 C.ar    1  UNL1        0.1719
      7 C          58.6088   93.6346   -0.5498 C.3     1  UNL1        0.0490
      8 C          58.9280   93.9584   -1.9792 C.3     1  UNL1        0.0898
      9 N          60.3488   93.9162   -2.4585 N.ar    1  UNL1       -0.3274
     10 C          60.6680   94.2401   -3.8879 C.ar    1  UNL1        0.0801
     11 C          62.0888   94.1979   -4.3672 C.ar    1  UNL1        0.0701
     12 C          63.1903   93.8319   -3.4171 C.ar    1  UNL1        0.1996
     13 O          64.6110   93.7898   -3.8964 O.2     1  UNL1       -0.2864
     14 C          62.8710   93.5081   -1.9877 C.ar    1  UNL1        0.0593
     15 C          61.4503   93.5503   -1.5084 C.ar    1  UNL1        0.0628
     16 C          57.8265   94.3244   -2.9293 C.3     1  UNL1        0.0211
     17 C          57.4093   95.7575   -3.0777 C.3     1  UNL1        0.0019
     18 C          57.1422   93.2571   -3.7311 C.3     1  UNL1        0.0019
     19 C          62.4080   94.5217   -5.7966 C.2     1  UNL1        0.0774
     20 O          62.9598   93.4598   -6.7009 O.co2   1  UNL1       -0.5444
     21 O          62.1753   95.9074   -6.3217 O.co2   1  UNL1       -0.5444
     22 C          63.5570   90.7722    3.2675 C.3     1  UNL1        0.2526
     23 O          63.0148   92.1707    3.2507 O.3     1  UNL1       -0.4684
     24 O          60.1733   92.2550    4.2093 O.3     1  UNL1       -0.4724
     25 C          58.7585   91.9653    4.6147 C.3     1  UNL1        0.2056
     26 C          58.4702   90.8772    5.6062 C.3     1  UNL1        0.0473
     27 C          59.5583   89.9306    6.0184 C.3     1  UNL1        0.0038
     28 C          59.3045   88.9206    7.0980 C.3     1  UNL1        0.0005
     29 C          59.9905   89.0532    8.4254 C.3     1  UNL1        0.0059
     30 C          60.4393   87.8269    9.1634 C.3     1  UNL1        0.0417
     31 C          60.3859   87.7920   10.6620 C.2     1  UNL1        0.0503
     32 O          60.9794   86.6331   11.4069 O.co2   1  UNL1       -0.5492
     33 O          59.7389   88.9159   11.4159 O.co2   1  UNL1       -0.5492
@<TRIPOS>UNITY_ATOM_ATTR
20 1
charge -1
32 1
charge -1
@<TRIPOS>BOND
     1    22    23    1
     2    23     1    1
     3     1     2   ar
     4     2     3   ar
     5     3     4   ar
     6     4     5   ar
     7     5     6   ar
     8     6    24    1
     9    24    25    1
    10    25    26    1
    11    26    27    1
    12    27    28    1
    13    28    29    1
    14    29    30    1
    15    30    31    1
    16    31    32   ar
    17    31    33   ar
    18     4     7    1
    19     7     8    1
    20     8    16    1
    21    16    17    1
    22    16    18    1
    23     8     9    1
    24     9    10   ar
    25    10    11   ar
    26    11    19    1
    27    19    20   ar
    28    19    21   ar
    29    11    12   ar
    30    12    13    2
    31    12    14   ar
    32    14    15   ar
    33     6     1   ar
    34    15     9   ar
    35    15     3    1
@<TRIPOS>MOLECULE
*****
 33 35 0 0 0
SMALL
GASTEIGER

@<TRIPOS>ATOM
      1 C          60.8068   89.2287    8.6149 C.ar    1  UNL1        0.1724
      2 C          61.8459   90.0980    9.2587 C.ar    1  UNL1        0.0412
      3 C          62.3707   89.7557   10.6215 C.ar    1  UNL1        0.0152
      4 C          61.8564   88.5439   11.3406 C.ar    1  UNL1       -0.0157
      5 C          60.8174   87.6745   10.6968 C.ar    1  UNL1        0.0359
      6 C          60.2926   88.0169    9.3340 C.ar    1  UNL1        0.1719
      7 C          62.3812   88.2015   12.7035 C.3     1  UNL1        0.0490
      8 C          63.4203   89.0709   13.3472 C.3     1  UNL1        0.0898
      9 N          63.9346   90.2828   12.6282 N.ar    1  UNL1       -0.3274
     10 C          64.9736   91.1521   13.2719 C.ar    1  UNL1        0.0801
     11 C          65.4879   92.3640   12.5528 C.ar    1  UNL1        0.0701
     12 C          64.9632   92.7064   11.1900 C.ar    1  UNL1        0.1996
     13 O          65.4774   93.9181   10.4709 O.2     1  UNL1       -0.2864
     14 C          63.9240   91.8369   10.5462 C.ar    1  UNL1        0.0593
     15 C          63.4098   90.6251   11.2653 C.ar    1  UNL1        0.0628
     16 C          63.9451   88.7286   14.7101 C.3     1  UNL1        0.0211
     17 C          64.6660   87.4321   14.9323 C.3     1  UNL1        0.0019
     18 C          63.7489   89.6827   15.8508 C.3     1  UNL1        0.0019
     19 C          66.5270   93.2334   13.1966 C.2     1  UNL1        0.0774
     20 O          66.1577   94.5986   13.6962 O.co2   1  UNL1       -0.5444
     21 O          67.9353   92.7375   13.3408 O.co2   1  UNL1       -0.5444
     22 C          58.8110   89.4854    6.9715 C.3     1  UNL1        0.2526
     23 O          60.2820   89.5710    7.2520 O.3     1  UNL1       -0.4684
     24 O          59.2535   87.1474    8.6902 O.3     1  UNL1       -0.4724
     25 C          59.6705   85.9692    7.8608 C.3     1  UNL1        0.2056
     26 C          61.1138   85.7803    7.4984 C.3     1  UNL1        0.0473
     27 C          62.1735   85.8974    8.5534 C.3     1  UNL1        0.0038
     28 C          63.2247   84.8352    8.6817 C.3     1  UNL1        0.0005
     29 C          63.4774   84.1866   10.0105 C.3     1  UNL1        0.0059
     30 C          62.6774   84.5988   11.2105 C.3     1  UNL1        0.0417
     31 C          63.2099   84.3459   12.5897 C.2     1  UNL1        0.0503
     32 O          64.4987   83.6001   12.7711 O.co2   1  UNL1       -0.5492
     33 O          62.4535   84.8387   13.7877 O.co2   1  UNL1       -0.5492
@<TRIPOS>UNITY_ATOM_ATTR
20 1
charge -1
32 1
charge -1
@<TRIPOS>BOND
     1    22    23    1
     2    23     1    1
     3     1     2   ar
     4     2     3   ar
     5     3     4   ar
     6     4     5   ar
     7     5     6   ar
     8     6    24    1
     9    24    25    1
    10    25    26    1
    11    26    27    1
    12    27    28    1
    13    28    29    1
    14    29    30    1
    15    30    31    1
    16    31    32   ar
    17    31    33   ar
    18     4     7    1
    19     7     8    1
    20     8    16    1
    21    16    17    1
    22    16    18    1
    23     8     9    1
    24     9    10   ar
    25    10    11   ar
    26    11    19    1
    27    19    20   ar
    28    19    21   ar
    29    11    12   ar
    30    12    13    2
    31    12    14   ar
    32    14    15   ar
    33     6     1   ar
    34    15     9   ar
    35    15     3    1
@<TRIPOS>MOLECULE
*****
 33 35 0 0 0
SMALL
GASTEIGER

@<TRIPOS>ATOM
      1 C          63.7381   85.1999   14.5339 C.ar    1  UNL1        0.1724
      2 C          64.2190   86.6199   14.4844 C.ar    1  UNL1        0.0412
      3 C          63.7225   87.5429   13.4113 C.ar    1  UNL1        0.0152
      4 C          62.7451   87.0460   12.3878 C.ar    1  UNL1       -0.0157
      5 C          62.2642   85.6261   12.4373 C.ar    1  UNL1        0.0359
      6 C          62.7607   84.7031   13.5103 C.ar    1  UNL1        0.1719
      7 C          62.2486   87.9691   11.3147 C.3     1  UNL1        0.0490
      8 C          62.7295   89.3890   11.2652 C.3     1  UNL1        0.0898
      9 N          63.7070   89.8860   12.2888 N.ar    1  UNL1       -0.3274
     10 C          64.1879   91.3059   12.2393 C.ar    1  UNL1        0.0801
     11 C          65.1653   91.8029   13.2629 C.ar    1  UNL1        0.0701
     12 C          65.6618   90.8798   14.3360 C.ar    1  UNL1        0.1996
     13 O          66.6393   91.3767   15.3596 O.2     1  UNL1       -0.2864
     14 C          65.1809   89.4598   14.3855 C.ar    1  UNL1        0.0593
     15 C          64.2035   88.9629   13.3619 C.ar    1  UNL1        0.0628
     16 C          62.2330   90.3121   10.1922 C.3     1  UNL1        0.0211
     17 C          60.8683   90.1116    9.6028 C.3     1  UNL1        0.0019
     18 C          63.1012   91.4357    9.7086 C.3     1  UNL1        0.0019
     19 C          65.6462   93.2228   13.2135 C.2     1  UNL1        0.0774
     20 O          65.7666   93.9283   11.8952 O.co2   1  UNL1       -0.5444
     21 O          66.0067   93.9372   14.4822 O.co2   1  UNL1       -0.5444
     22 C          64.8844   82.9768   15.2363 C.3     1  UNL1        0.2526
     23 O          64.2347   84.2769   15.6069 O.3     1  UNL1       -0.4684
     24 O          62.2798   83.2831   13.5598 O.3     1  UNL1       -0.4724
     25 C          62.5077   82.3728   12.3896 C.3     1  UNL1        0.2056
     26 C          63.8290   82.3807   11.6794 C.3     1  UNL1        0.0473
     27 C          63.9167   82.8686   10.2638 C.3     1  UNL1        0.0038
     28 C          63.5330   84.2802    9.9319 C.3     1  UNL1        0.0005
     29 C          63.1174   84.6359    8.5351 C.3     1  UNL1        0.0059
     30 C          62.4025   85.9279    8.2714 C.3     1  UNL1        0.0417
     31 C          60.9220   85.9302    8.0309 C.2     1  UNL1        0.0503
     32 O          60.0138   86.6899    8.9518 O.co2   1  UNL1       -0.5492
     33 O          60.3495   85.1729    6.8695 O.co2   1  UNL1       -0.5492
@<TRIPOS>UNITY_ATOM_ATTR
20 1
charge -1
32 1
charge -1
@<TRIPOS>BOND
     1    22    23    1
     2    23     1    1
     3     1     2   ar
     4     2     3   ar
     5     3     4   ar
     6     4     5   ar
     7     5     6   ar
     8     6    24    1
     9    24    25    1
    10    25    26    1
    11    26    27    1
    12    27    28    1
    13    28    29    1
    14    29    30    1
    15    30    31    1
    16    31    32   ar
    17    31    33   ar
    18     4     7    1
    19     7     8    1
    20     8    16    1
    21    16    17    1
    22    16    18    1
    23     8     9    1
    24     9    10   ar
    25    10    11   ar
    26    11    19    1
    27    19    20   ar
    28    19    21   ar
    29    11    12   ar
    30    12    13    2
    31    12    14   ar
    32    14    15   ar
    33     6     1   ar
    34    15     9   ar
    35    15     3    1
