@<TRIPOS>MOLECULE
*****
 35 37 0 0 0
SMALL
GASTEIGER

@<TRIPOS>ATOM
      1 C          63.6304   91.2776   11.4848 C.3     1  UNL1        0.1416
      2 C          64.9154   92.0283   11.2974 C.3     1  UNL1        0.2736
      3 S          65.8370   92.2399   12.4617 S.O     1  UNL1        0.0319
      4 O          67.1221   92.9906   12.2743 O.co2   1  UNL1       -0.6812
      5 C          65.4736   91.7009   13.8135 C.3     1  UNL1        0.2582
      6 C          64.1886   90.9503   14.0010 C.3     1  UNL1        0.0920
      7 C          63.2670   90.7386   12.8366 C.3     1  UNL1        0.1353
      8 O          61.9819   89.9879   13.0240 O.3     1  UNL1       -0.3827
      9 H          61.5084   89.9413   12.1787 H       1  UNL1        0.2104
     10 N          62.7087   91.0659   10.3204 N.3     1  UNL1       -0.2887
     11 H          62.4728   91.9904    9.9597 H       1  UNL1        0.1237
     12 C          61.4143   90.3327   10.5121 C.3     1  UNL1        0.0958
     13 C          61.7805   86.5510    9.3655 C.ar    1  UNL1       -0.0231
     14 C          60.6826   86.4557    8.3480 C.ar    1  UNL1       -0.0043
     15 C          59.8286   87.6528    8.0518 C.ar    1  UNL1       -0.0006
     16 C          60.0724   88.9451    8.7731 C.ar    1  UNL1       -0.0029
     17 C          61.1704   89.0404    9.7907 C.ar    1  UNL1       -0.0067
     18 C          62.0244   87.8433   10.0869 C.ar    1  UNL1       -0.0072
     19 C          62.2276   85.4205   11.1039 C.3     1  UNL1        0.0044
     20 C          62.6346   85.3540    9.6617 C.3     1  UNL1        0.0189
     21 C          63.0416   85.2875    8.2195 C.3     1  UNL1        0.0044
     22 C          63.4886   84.1570    9.9579 C.3     1  UNL1        0.0044
     23 C          63.8252   90.4112   15.3528 C.3     1  UNL1        0.0342
     24 C          63.7759   88.9295   15.5810 C.ar    1  UNL1       -0.0166
     25 C          63.0573   88.3783   16.7768 C.ar    1  UNL1        0.0338
     26 C          63.0081   86.8966   17.0049 C.ar    1  UNL1        0.1483
     27 O          62.2896   86.3454   18.2007 O.3     1  UNL1       -0.5042
     28 C          63.6774   85.9661   16.0374 C.ar    1  UNL1        0.1035
     29 N          63.6282   84.4844   16.2655 N.pl3   1  UNL1       -0.3529
     30 C          64.3960   86.5173   14.8416 C.ar    1  UNL1        0.1556
     31 F          65.0653   85.5868   13.8741 F       1  UNL1       -0.2028
     32 C          64.4452   87.9990   14.6134 C.ar    1  UNL1        0.0268
     33 H          61.8715   86.9267   18.8051 H       1  UNL1        0.2922
     34 H          63.1566   84.1226   17.0503 H       1  UNL1        0.1425
     35 H          64.0675   83.8737   15.6305 H       1  UNL1        0.1425
@<TRIPOS>UNITY_ATOM_ATTR
3 1
charge 1
4 1
charge -1
@<TRIPOS>BOND
     1    19    20    1
     2    20    21    1
     3    20    22    1
     4    20    13    1
     5    13    14   ar
     6    14    15   ar
     7    15    16   ar
     8    16    17   ar
     9    17    12    1
    10    12    10    1
    11     1    10    1
    12     1     2    1
    13     2     3    1
    14     3     4    2
    15     3     5    1
    16     5     6    1
    17     6    23    1
    18    23    24    1
    19    24    25   ar
    20    25    26   ar
    21    26    27    1
    22    26    28   ar
    23    28    29    1
    24    28    30   ar
    25    30    31    1
    26    30    32   ar
    27     6     7    1
    28     7     8    1
    29    17    18   ar
    30    18    13   ar
    31     7     1    1
    32    32    24   ar
    33    10    11    1
    34    27    33    1
    35    29    34    1
    36    29    35    1
    37     8     9    1
@<TRIPOS>MOLECULE
*****
 35 37 0 0 0
SMALL
GASTEIGER

@<TRIPOS>ATOM
      1 C          62.7879   90.8243   11.5250 C.3     1  UNL1        0.1416
      2 C          62.2975   90.1205   12.7555 C.3     1  UNL1        0.2736
      3 S          63.1194   90.1430   14.0100 S.O     1  UNL1        0.0319
      4 O          62.6290   89.4392   15.2406 O.co2   1  UNL1       -0.6812
      5 C          64.4316   90.8692   14.0341 C.3     1  UNL1        0.2582
      6 C          64.9220   91.5730   12.8036 C.3     1  UNL1        0.0920
      7 C          64.1001   91.5505   11.5490 C.3     1  UNL1        0.1353
      8 O          64.5905   92.2543   10.3184 O.3     1  UNL1       -0.3827
      9 H          63.9450   92.1425    9.6031 H       1  UNL1        0.2104
     10 N          61.9660   90.8019   10.2703 N.3     1  UNL1       -0.2887
     11 H          61.7207   91.7697   10.0617 H       1  UNL1        0.1237
     12 C          60.6916   90.0122   10.2226 C.3     1  UNL1        0.0958
     13 C          61.6017   86.2922    9.1820 C.ar    1  UNL1       -0.0231
     14 C          60.5835   86.0406    8.1097 C.ar    1  UNL1       -0.0043
     15 C          59.6013   87.1129    7.7416 C.ar    1  UNL1       -0.0006
     16 C          59.6373   88.4367    8.4459 C.ar    1  UNL1       -0.0029
     17 C          60.6555   88.6883    9.5182 C.ar    1  UNL1       -0.0067
     18 C          61.6378   87.6160    9.8862 C.ar    1  UNL1       -0.0072
     19 C          63.0498   85.1577    8.1255 C.3     1  UNL1        0.0044
     20 C          62.5840   85.2199    9.5500 C.3     1  UNL1        0.0189
     21 C          62.1181   85.2821   10.9745 C.3     1  UNL1        0.0044
     22 C          63.5662   84.1476    9.9180 C.3     1  UNL1        0.0044
     23 C          66.2342   92.2992   12.8277 C.3     1  UNL1        0.0342
     24 C          66.6612   93.1161   11.6443 C.ar    1  UNL1       -0.0166
     25 C          67.4215   92.4718   10.5231 C.ar    1  UNL1        0.0338
     26 C          67.8484   93.2886    9.3398 C.ar    1  UNL1        0.1483
     27 O          68.6087   92.6443    8.2187 O.3     1  UNL1       -0.5042
     28 C          67.5151   94.7498    9.2774 C.ar    1  UNL1        0.1035
     29 N          67.9421   95.5666    8.0941 N.pl3   1  UNL1       -0.3529
     30 C          66.7549   95.3941   10.3985 C.ar    1  UNL1        0.1556
     31 F          66.4216   96.8553   10.3362 F       1  UNL1       -0.2028
     32 C          66.3279   94.5773   11.5820 C.ar    1  UNL1        0.0268
     33 H          68.8168   91.7315    8.2576 H       1  UNL1        0.2922
     34 H          68.4410   95.1437    7.3582 H       1  UNL1        0.1425
     35 H          67.7233   96.5256    8.0532 H       1  UNL1        0.1425
@<TRIPOS>UNITY_ATOM_ATTR
3 1
charge 1
4 1
charge -1
@<TRIPOS>BOND
     1    19    20    1
     2    20    21    1
     3    20    22    1
     4    20    13    1
     5    13    14   ar
     6    14    15   ar
     7    15    16   ar
     8    16    17   ar
     9    17    12    1
    10    12    10    1
    11     1    10    1
    12     1     2    1
    13     2     3    1
    14     3     4    2
    15     3     5    1
    16     5     6    1
    17     6    23    1
    18    23    24    1
    19    24    25   ar
    20    25    26   ar
    21    26    27    1
    22    26    28   ar
    23    28    29    1
    24    28    30   ar
    25    30    31    1
    26    30    32   ar
    27     6     7    1
    28     7     8    1
    29    17    18   ar
    30    18    13   ar
    31     7     1    1
    32    32    24   ar
    33    10    11    1
    34    27    33    1
    35    29    34    1
    36    29    35    1
    37     8     9    1
@<TRIPOS>MOLECULE
*****
 35 37 0 0 0
SMALL
GASTEIGER

@<TRIPOS>ATOM
      1 C          61.3646   88.3675   11.1613 C.3     1  UNL1        0.1416
      2 C          60.2529   88.2526   10.1608 C.3     1  UNL1        0.2736
      3 S          60.1202   87.0134    9.3262 S.O     1  UNL1        0.0319
      4 O          59.0085   86.8986    8.3256 O.co2   1  UNL1       -0.6812
      5 C          61.0990   85.8890    9.4920 C.3     1  UNL1        0.2582
      6 C          62.2107   86.0038   10.4925 C.3     1  UNL1        0.0920
      7 C          62.3434   87.2430   11.3272 C.3     1  UNL1        0.1353
      8 O          63.4551   87.3579   12.3277 O.3     1  UNL1       -0.3827
      9 H          63.3969   88.2147   12.7788 H       1  UNL1        0.2104
     10 N          61.4974   89.6067   11.9960 N.3     1  UNL1       -0.2887
     11 H          60.5552   89.8693   12.2852 H       1  UNL1        0.1237
     12 C          62.1312   90.8367   11.4169 C.3     1  UNL1        0.0958
     13 C          65.7344   92.5001   11.4190 C.ar    1  UNL1       -0.0231
     14 C          66.2231   92.1160   12.7841 C.ar    1  UNL1       -0.0043
     15 C          65.3479   91.3054   13.6935 C.ar    1  UNL1       -0.0006
     16 C          63.9839   90.8790   13.2378 C.ar    1  UNL1       -0.0029
     17 C          63.4952   91.2631   11.8727 C.ar    1  UNL1       -0.0067
     18 C          64.3704   92.0737   10.9633 C.ar    1  UNL1       -0.0072
     19 C          65.6669   94.4705   10.6361 C.3     1  UNL1        0.0044
     20 C          66.6096   93.3107   10.5096 C.3     1  UNL1        0.0189
     21 C          67.5524   92.1508   10.3832 C.3     1  UNL1        0.0044
     22 C          67.4849   94.1212    9.6002 C.3     1  UNL1        0.0044
     23 C          63.1895   84.8794   10.6584 C.3     1  UNL1        0.0342
     24 C          62.9483   83.8217   11.6941 C.ar    1  UNL1       -0.0166
     25 C          62.7497   84.2090   13.1296 C.ar    1  UNL1        0.0338
     26 C          62.5084   83.1513   14.1654 C.ar    1  UNL1        0.1483
     27 O          62.3098   83.5387   15.6008 O.3     1  UNL1       -0.5042
     28 C          62.4658   81.7061   13.7658 C.ar    1  UNL1        0.1035
     29 N          62.2246   80.6484   14.8016 N.pl3   1  UNL1       -0.3529
     30 C          62.6645   81.3187   12.3304 C.ar    1  UNL1        0.1556
     31 F          62.6219   79.8735   11.9308 F       1  UNL1       -0.2028
     32 C          62.9057   82.3765   11.2945 C.ar    1  UNL1        0.0268
     33 H          62.3364   84.4414   15.8504 H       1  UNL1        0.2922
     34 H          62.0942   80.9026   15.7437 H       1  UNL1        0.1425
     35 H          62.1967   79.6999   14.5393 H       1  UNL1        0.1425
@<TRIPOS>UNITY_ATOM_ATTR
3 1
charge 1
4 1
charge -1
@<TRIPOS>BOND
     1    19    20    1
     2    20    21    1
     3    20    22    1
     4    20    13    1
     5    13    14   ar
     6    14    15   ar
     7    15    16   ar
     8    16    17   ar
     9    17    12    1
    10    12    10    1
    11     1    10    1
    12     1     2    1
    13     2     3    1
    14     3     4    2
    15     3     5    1
    16     5     6    1
    17     6    23    1
    18    23    24    1
    19    24    25   ar
    20    25    26   ar
    21    26    27    1
    22    26    28   ar
    23    28    29    1
    24    28    30   ar
    25    30    31    1
    26    30    32   ar
    27     6     7    1
    28     7     8    1
    29    17    18   ar
    30    18    13   ar
    31     7     1    1
    32    32    24   ar
    33    10    11    1
    34    27    33    1
    35    29    34    1
    36    29    35    1
    37     8     9    1
@<TRIPOS>MOLECULE
*****
 35 37 0 0 0
SMALL
GASTEIGER

@<TRIPOS>ATOM
      1 C          62.8128   84.1389   13.5945 C.3     1  UNL1        0.1416
      2 C          62.7322   82.6411   13.6014 C.3     1  UNL1        0.2736
      3 S          62.7885   81.8811   12.3095 S.O     1  UNL1        0.0319
      4 O          62.7079   80.3832   12.3164 O.co2   1  UNL1       -0.6812
      5 C          62.9255   82.6188   11.0107 C.3     1  UNL1        0.2582
      6 C          63.0061   84.1166   11.0037 C.3     1  UNL1        0.0920
      7 C          62.9498   84.8766   12.2956 C.3     1  UNL1        0.1353
      8 O          63.0304   86.3745   12.2887 O.3     1  UNL1       -0.3827
      9 H          62.9798   86.7052   13.1992 H       1  UNL1        0.2104
     10 N          62.7565   84.8991   14.8864 N.3     1  UNL1       -0.2887
     11 H          61.9697   85.5442   14.8144 H       1  UNL1        0.1237
     12 C          63.9389   85.7064   15.3338 C.3     1  UNL1        0.0958
     13 C          64.1033   89.6288   14.7522 C.ar    1  UNL1       -0.0231
     14 C          63.5075   90.1306   16.0341 C.ar    1  UNL1       -0.0043
     15 C          63.0556   89.1577   17.0825 C.ar    1  UNL1       -0.0006
     16 C          63.1993   87.6830   16.8491 C.ar    1  UNL1       -0.0029
     17 C          63.7951   87.1812   15.5673 C.ar    1  UNL1       -0.0067
     18 C          64.2471   88.1541   14.5188 C.ar    1  UNL1       -0.0072
     19 C          63.5443   90.0411   12.7479 C.3     1  UNL1        0.0044
     20 C          64.5553   90.6016   13.7038 C.3     1  UNL1        0.0189
     21 C          65.5662   91.1622   14.6598 C.3     1  UNL1        0.0044
     22 C          65.0073   91.5745   12.6554 C.3     1  UNL1        0.0044
     23 C          63.1431   84.8543    9.7049 C.3     1  UNL1        0.0342
     24 C          62.1747   85.9454    9.3563 C.ar    1  UNL1       -0.0166
     25 C          60.9071   85.6176    8.6242 C.ar    1  UNL1        0.0338
     26 C          59.9387   86.7087    8.2756 C.ar    1  UNL1        0.1483
     27 O          58.6713   86.3809    7.5435 O.3     1  UNL1       -0.5042
     28 C          60.2377   88.1277    8.6592 C.ar    1  UNL1        0.1035
     29 N          59.2693   89.2188    8.3107 N.pl3   1  UNL1       -0.3529
     30 C          61.5052   88.4555    9.3913 C.ar    1  UNL1        0.1556
     31 F          61.8042   89.8745    9.7749 F       1  UNL1       -0.2028
     32 C          62.4737   87.3644    9.7399 C.ar    1  UNL1        0.0268
     33 H          58.4845   85.4945    7.3039 H       1  UNL1        0.2922
     34 H          58.4374   89.0037    7.8301 H       1  UNL1        0.1425
     35 H          59.4656   90.1501    8.5624 H       1  UNL1        0.1425
@<TRIPOS>UNITY_ATOM_ATTR
3 1
charge 1
4 1
charge -1
@<TRIPOS>BOND
     1    19    20    1
     2    20    21    1
     3    20    22    1
     4    20    13    1
     5    13    14   ar
     6    14    15   ar
     7    15    16   ar
     8    16    17   ar
     9    17    12    1
    10    12    10    1
    11     1    10    1
    12     1     2    1
    13     2     3    1
    14     3     4    2
    15     3     5    1
    16     5     6    1
    17     6    23    1
    18    23    24    1
    19    24    25   ar
    20    25    26   ar
    21    26    27    1
    22    26    28   ar
    23    28    29    1
    24    28    30   ar
    25    30    31    1
    26    30    32   ar
    27     6     7    1
    28     7     8    1
    29    17    18   ar
    30    18    13   ar
    31     7     1    1
    32    32    24   ar
    33    10    11    1
    34    27    33    1
    35    29    34    1
    36    29    35    1
    37     8     9    1
@<TRIPOS>MOLECULE
*****
 35 37 0 0 0
SMALL
GASTEIGER

@<TRIPOS>ATOM
      1 C          62.4367   90.8474   11.0586 C.3     1  UNL1        0.1416
      2 C          63.5502   91.5751   10.3654 C.3     1  UNL1        0.2736
      3 S          64.7563   92.0145   11.1413 S.O     1  UNL1        0.0319
      4 O          65.8698   92.7423   10.4482 O.co2   1  UNL1       -0.6812
      5 C          64.8489   91.7263   12.6105 C.3     1  UNL1        0.2582
      6 C          63.7355   90.9985   13.3037 C.3     1  UNL1        0.0920
      7 C          62.5294   90.5591   12.5277 C.3     1  UNL1        0.1353
      8 O          61.4158   89.8313   13.2209 O.3     1  UNL1       -0.3827
      9 H          60.7186   89.6212   12.5800 H       1  UNL1        0.2104
     10 N          61.2305   90.4079   10.2827 N.3     1  UNL1       -0.2887
     11 H          60.5339   91.1468   10.3778 H       1  UNL1        0.1237
     12 C          60.5449   89.1194   10.6284 C.3     1  UNL1        0.0958
     13 C          62.1941   85.5526   10.0733 C.ar    1  UNL1       -0.0231
     14 C          61.8225   85.2878    8.6444 C.ar    1  UNL1       -0.0043
     15 C          61.0251   86.3001    7.8769 C.ar    1  UNL1       -0.0006
     16 C          60.5992   87.5773    8.5382 C.ar    1  UNL1       -0.0029
     17 C          60.9707   87.8421    9.9671 C.ar    1  UNL1       -0.0067
     18 C          61.7682   86.8297   10.7346 C.ar    1  UNL1       -0.0072
     19 C          63.5779   84.0295    9.5582 C.3     1  UNL1        0.0044
     20 C          62.9915   84.5402   10.8409 C.3     1  UNL1        0.0189
     21 C          62.4051   85.0508   12.1236 C.3     1  UNL1        0.0044
     22 C          63.7889   83.5278   11.6085 C.3     1  UNL1        0.0044
     23 C          63.8281   90.7103   14.7728 C.3     1  UNL1        0.0342
     24 C          63.7988   89.2927   15.2622 C.ar    1  UNL1       -0.0166
     25 C          64.4234   88.2030   14.4421 C.ar    1  UNL1        0.0338
     26 C          64.3941   86.7854   14.9316 C.ar    1  UNL1        0.1483
     27 O          65.0187   85.6958   14.1115 O.3     1  UNL1       -0.5042
     28 C          63.7402   86.4575   16.2411 C.ar    1  UNL1        0.1035
     29 N          63.7109   85.0399   16.7306 N.pl3   1  UNL1       -0.3529
     30 C          63.1156   87.5471   17.0612 C.ar    1  UNL1        0.1556
     31 F          62.4617   87.2191   18.3707 F       1  UNL1       -0.2028
     32 C          63.1449   88.9647   16.5717 C.ar    1  UNL1        0.0268
     33 H          65.4272   85.9007   13.2935 H       1  UNL1        0.2922
     34 H          64.1208   84.3247   16.1923 H       1  UNL1        0.1425
     35 H          63.2817   84.8247   17.5900 H       1  UNL1        0.1425
@<TRIPOS>UNITY_ATOM_ATTR
3 1
charge 1
4 1
charge -1
@<TRIPOS>BOND
     1    19    20    1
     2    20    21    1
     3    20    22    1
     4    20    13    1
     5    13    14   ar
     6    14    15   ar
     7    15    16   ar
     8    16    17   ar
     9    17    12    1
    10    12    10    1
    11     1    10    1
    12     1     2    1
    13     2     3    1
    14     3     4    2
    15     3     5    1
    16     5     6    1
    17     6    23    1
    18    23    24    1
    19    24    25   ar
    20    25    26   ar
    21    26    27    1
    22    26    28   ar
    23    28    29    1
    24    28    30   ar
    25    30    31    1
    26    30    32   ar
    27     6     7    1
    28     7     8    1
    29    17    18   ar
    30    18    13   ar
    31     7     1    1
    32    32    24   ar
    33    10    11    1
    34    27    33    1
    35    29    34    1
    36    29    35    1
    37     8     9    1
