@<TRIPOS>MOLECULE
*****
 40 43 0 0 0
SMALL
GASTEIGER

@<TRIPOS>ATOM
      1 C          64.1338   89.2787   13.1127 C.ar    1  UNL1        0.0053
      2 C          64.4684   89.0678   14.5596 C.ar    1  UNL1        0.0033
      3 C          64.2565   87.7234   15.1902 C.ar    1  UNL1        0.0382
      4 C          63.7100   86.5898   14.3738 C.ar    1  UNL1        0.1529
      5 C          63.3754   86.8007   12.9270 C.ar    1  UNL1        0.0881
      6 C          63.5873   88.1451   12.2964 C.ar    1  UNL1        0.0181
      7 N          62.8289   85.6671   12.1106 N.am    1  UNL1       -0.2529
      8 C          62.6170   84.3227   12.7412 C.2     1  UNL1        0.2697
      9 O          62.0706   83.1892   11.9248 O.2     1  UNL1       -0.2704
     10 C          62.9516   84.1118   14.1881 C.3     1  UNL1        0.2199
     11 C          63.1163   83.4244   15.5111 C.3     1  UNL1        0.0579
     12 O          63.4981   85.2454   15.0045 O.3     1  UNL1       -0.4686
     13 C          63.6642   90.9608   11.1892 C.ar    1  UNL1        0.0645
     14 N          63.8760   92.3052   10.5586 N.ar    1  UNL1       -0.2183
     15 C          64.7693   93.3119   11.2209 C.ar    1  UNL1        0.2145
     16 N          64.9812   94.6563   10.5902 N.pl3   1  UNL1       -0.3274
     17 N          65.4508   92.9742   12.5138 N.ar    1  UNL1       -0.1995
     18 C          65.2389   91.6298   13.1444 C.ar    1  UNL1        0.1293
     19 N          65.9204   91.2920   14.4373 N.pl3   1  UNL1       -0.3425
     20 C          64.3456   90.6231   12.4821 C.ar    1  UNL1        0.0449
     21 H          64.5339   94.8780    9.7417 H       1  UNL1        0.1452
     22 H          65.5675   95.3170   11.0249 H       1  UNL1        0.1452
     23 H          66.5067   91.9528   14.8719 H       1  UNL1        0.1437
     24 H          65.7813   90.4097   14.8512 H       1  UNL1        0.1437
     25 C          61.2904   90.1883   10.4692 C.3     1  UNL1        0.0067
     26 C          62.7709   89.9541   10.5270 C.3     1  UNL1        0.0460
     27 C          62.4624   82.7396   13.8313 C.ar    1  UNL1        0.0264
     28 C          63.2077   81.9162   12.8230 C.ar    1  UNL1        0.0293
     29 C          62.7184   80.5439   12.4661 C.ar    1  UNL1        0.1422
     30 F          63.4638   79.7206   11.4578 F       1  UNL1       -0.2041
     31 C          61.4838   79.9949   13.1174 C.ar    1  UNL1        0.0592
     32 C          60.7385   80.8183   14.1257 C.ar    1  UNL1        0.1422
     33 F          59.5038   80.2693   14.7771 F       1  UNL1       -0.2041
     34 C          61.2277   82.1906   14.4826 C.ar    1  UNL1        0.0293
     35 C          62.4943   85.8780   10.6637 C.3     1  UNL1        0.0985
     36 C          61.1348   86.3772   10.2734 C.3     1  UNL1        0.0245
     37 C          60.7222   86.3794    8.8312 C.3     1  UNL1        0.0335
     38 C          59.4684   87.0875    8.4108 C.3     1  UNL1        0.1372
     39 O          58.4908   86.4050    7.5007 O.3     1  UNL1       -0.3820
     40 H          58.8992   86.2684    6.6315 H       1  UNL1        0.2104
@<TRIPOS>BOND
     1    25    26    1
     2    26    13    1
     3    13    14   ar
     4    14    15   ar
     5    15    16    1
     6    15    17   ar
     7    17    18   ar
     8    18    19    1
     9    18    20   ar
    10    20     1    1
    11     1     2   ar
    12     2     3   ar
    13     3     4   ar
    14     4     5   ar
    15     5     6   ar
    16     5     7    1
    17     7    35    1
    18    35    36    1
    19    36    37    1
    20    37    38    1
    21    38    39    1
    22     7     8   am
    23     8     9    2
    24     8    10    1
    25    10    11    1
    26    10    27    1
    27    27    28   ar
    28    28    29   ar
    29    29    30    1
    30    29    31   ar
    31    31    32   ar
    32    32    33    1
    33    32    34   ar
    34    10    12    1
    35    20    13   ar
    36     6     1   ar
    37    34    27   ar
    38    12     4    1
    39    16    21    1
    40    16    22    1
    41    19    23    1
    42    19    24    1
    43    39    40    1
@<TRIPOS>MOLECULE
*****
 40 43 0 0 0
SMALL
GASTEIGER

@<TRIPOS>ATOM
      1 C          64.1302   89.2979   13.1137 C.ar    1  UNL1        0.0053
      2 C          64.4480   89.0896   14.5648 C.ar    1  UNL1        0.0033
      3 C          64.2307   87.7457   15.1947 C.ar    1  UNL1        0.0382
      4 C          63.6956   86.6102   14.3735 C.ar    1  UNL1        0.1529
      5 C          63.3779   86.8185   12.9225 C.ar    1  UNL1        0.0881
      6 C          63.5951   88.1624   12.2926 C.ar    1  UNL1        0.0181
      7 N          62.8428   85.6830   12.1013 N.am    1  UNL1       -0.2529
      8 C          62.6255   84.3392   12.7312 C.2     1  UNL1        0.2697
      9 O          62.0904   83.2036   11.9100 O.2     1  UNL1       -0.2704
     10 C          62.9433   84.1308   14.1823 C.3     1  UNL1        0.2199
     11 C          63.0934   83.4454   15.5081 C.3     1  UNL1        0.0579
     12 O          63.4784   85.2663   15.0035 O.3     1  UNL1       -0.4686
     13 C          65.2371   91.6481   13.1515 C.ar    1  UNL1        0.0645
     14 N          65.4544   92.9920   12.5216 N.ar    1  UNL1       -0.2183
     15 C          64.7820   93.3296   11.2239 C.ar    1  UNL1        0.2145
     16 N          64.9993   94.6734   10.5941 N.pl3   1  UNL1       -0.3274
     17 N          63.8923   92.3233   10.5562 N.ar    1  UNL1       -0.1995
     18 C          63.6751   90.9794   11.1862 C.ar    1  UNL1        0.1293
     19 N          62.7854   89.9731   10.5184 N.pl3   1  UNL1       -0.3425
     20 C          64.3475   90.6418   12.4838 C.ar    1  UNL1        0.0449
     21 H          65.5832   95.3339   11.0323 H       1  UNL1        0.1452
     22 H          64.5580   94.8950    9.7424 H       1  UNL1        0.1452
     23 H          62.3441   90.1947    9.6667 H       1  UNL1        0.1437
     24 H          62.6428   89.0911   10.9318 H       1  UNL1        0.1437
     25 C          66.1930   92.3909   15.4504 C.3     1  UNL1        0.0067
     26 C          65.9095   91.3105   14.4492 C.3     1  UNL1        0.0460
     27 C          62.4604   82.7573   13.8216 C.ar    1  UNL1        0.0264
     28 C          61.2325   82.1979   14.4768 C.ar    1  UNL1        0.0293
     29 C          60.7495   80.8243   14.1161 C.ar    1  UNL1        0.1422
     30 F          59.5216   80.2649   14.7714 F       1  UNL1       -0.2041
     31 C          61.4944   80.0101   13.1002 C.ar    1  UNL1        0.0592
     32 C          62.7223   80.5695   12.4449 C.ar    1  UNL1        0.1422
     33 F          63.4673   79.7554   11.4289 F       1  UNL1       -0.2041
     34 C          63.2053   81.9431   12.8056 C.ar    1  UNL1        0.0293
     35 C          62.5250   85.8913   10.6503 C.3     1  UNL1        0.0985
     36 C          61.1907   86.4452   10.2467 C.3     1  UNL1        0.0245
     37 C          60.6980   86.2655    8.8413 C.3     1  UNL1        0.0335
     38 C          59.5341   87.0715    8.3458 C.3     1  UNL1        0.1372
     39 O          58.4223   86.4004    7.5951 O.3     1  UNL1       -0.3820
     40 H          58.7593   86.0652    6.7496 H       1  UNL1        0.2104
@<TRIPOS>BOND
     1    25    26    1
     2    26    13    1
     3    13    14   ar
     4    14    15   ar
     5    15    16    1
     6    15    17   ar
     7    17    18   ar
     8    18    19    1
     9    18    20   ar
    10    20     1    1
    11     1     2   ar
    12     2     3   ar
    13     3     4   ar
    14     4     5   ar
    15     5     6   ar
    16     5     7    1
    17     7    35    1
    18    35    36    1
    19    36    37    1
    20    37    38    1
    21    38    39    1
    22     7     8   am
    23     8     9    2
    24     8    10    1
    25    10    11    1
    26    10    27    1
    27    27    28   ar
    28    28    29   ar
    29    29    30    1
    30    29    31   ar
    31    31    32   ar
    32    32    33    1
    33    32    34   ar
    34    10    12    1
    35    20    13   ar
    36     6     1   ar
    37    34    27   ar
    38    12     4    1
    39    16    21    1
    40    16    22    1
    41    19    23    1
    42    19    24    1
    43    39    40    1
@<TRIPOS>MOLECULE
*****
 40 43 0 0 0
SMALL
GASTEIGER

@<TRIPOS>ATOM
      1 C          64.6409   90.1408   13.7067 C.ar    1  UNL1        0.0053
      2 C          63.7138   90.4320   12.5641 C.ar    1  UNL1        0.0033
      3 C          62.9868   89.3103   11.8836 C.ar    1  UNL1        0.0382
      4 C          63.1870   87.8973   12.3457 C.ar    1  UNL1        0.1529
      5 C          64.1141   87.6061   13.4883 C.ar    1  UNL1        0.0881
      6 C          64.8411   88.7279   14.1688 C.ar    1  UNL1        0.0181
      7 N          64.3143   86.1932   13.9503 N.am    1  UNL1       -0.2529
      8 C          63.5873   85.0714   13.2698 C.2     1  UNL1        0.2697
      9 O          63.7875   83.6585   13.7319 O.2     1  UNL1       -0.2704
     10 C          62.6601   85.3626   12.1271 C.3     1  UNL1        0.2199
     11 C          61.6849   85.1357   11.0103 C.3     1  UNL1        0.0579
     12 O          62.4600   86.7755   11.6651 O.3     1  UNL1       -0.4686
     13 C          66.5038   91.9518   13.6910 C.ar    1  UNL1        0.0645
     14 N          67.2308   93.0735   14.3715 N.ar    1  UNL1       -0.2183
     15 C          66.8219   93.5061   15.7484 C.ar    1  UNL1        0.2145
     16 N          67.5490   94.6278   16.4290 N.pl3   1  UNL1       -0.3274
     17 N          65.6861   92.8169   16.4448 N.ar    1  UNL1       -0.1995
     18 C          64.9591   91.6951   15.7642 C.ar    1  UNL1        0.1293
     19 N          63.8233   91.0059   16.4605 N.pl3   1  UNL1       -0.3425
     20 C          65.3679   91.2626   14.3873 C.ar    1  UNL1        0.0449
     21 H          68.2944   95.0802   15.9719 H       1  UNL1        0.1452
     22 H          67.2806   94.9117   17.3326 H       1  UNL1        0.1452
     23 H          63.5549   91.2898   17.3642 H       1  UNL1        0.1437
     24 H          63.3461   90.2697   16.0138 H       1  UNL1        0.1437
     25 C          66.7811   92.4682   11.1599 C.3     1  UNL1        0.0067
     26 C          66.9126   91.5192   12.3141 C.3     1  UNL1        0.0460
     27 C          62.5216   83.8709   12.2013 C.ar    1  UNL1        0.0264
     28 C          63.0199   83.0145   11.0751 C.ar    1  UNL1        0.0293
     29 C          62.8813   81.5227   11.1494 C.ar    1  UNL1        0.1422
     30 F          63.3796   80.6663   10.0231 F       1  UNL1       -0.2041
     31 C          62.2446   80.8874   12.3497 C.ar    1  UNL1        0.0592
     32 C          61.7464   81.7438   13.4758 C.ar    1  UNL1        0.1422
     33 F          61.1096   81.1085   14.6762 F       1  UNL1       -0.2041
     34 C          61.8849   83.2355   13.4017 C.ar    1  UNL1        0.0293
     35 C          65.2414   85.9020   15.0929 C.3     1  UNL1        0.0985
     36 C          64.6844   85.5156   16.4310 C.3     1  UNL1        0.0245
     37 C          63.2269   85.7169   16.7232 C.3     1  UNL1        0.0335
     38 C          62.7778   86.9128   17.5093 C.3     1  UNL1        0.1372
     39 O          62.7581   88.2682   16.8672 O.3     1  UNL1       -0.3820
     40 H          63.6656   88.5413   16.6605 H       1  UNL1        0.2104
@<TRIPOS>BOND
     1    25    26    1
     2    26    13    1
     3    13    14   ar
     4    14    15   ar
     5    15    16    1
     6    15    17   ar
     7    17    18   ar
     8    18    19    1
     9    18    20   ar
    10    20     1    1
    11     1     2   ar
    12     2     3   ar
    13     3     4   ar
    14     4     5   ar
    15     5     6   ar
    16     5     7    1
    17     7    35    1
    18    35    36    1
    19    36    37    1
    20    37    38    1
    21    38    39    1
    22     7     8   am
    23     8     9    2
    24     8    10    1
    25    10    11    1
    26    10    27    1
    27    27    28   ar
    28    28    29   ar
    29    29    30    1
    30    29    31   ar
    31    31    32   ar
    32    32    33    1
    33    32    34   ar
    34    10    12    1
    35    20    13   ar
    36     6     1   ar
    37    34    27   ar
    38    12     4    1
    39    16    21    1
    40    16    22    1
    41    19    23    1
    42    19    24    1
    43    39    40    1
@<TRIPOS>MOLECULE
*****
 40 43 0 0 0
SMALL
GASTEIGER

@<TRIPOS>ATOM
      1 C          64.6454   90.1432   13.7063 C.ar    1  UNL1        0.0053
      2 C          63.7179   90.4353   12.5642 C.ar    1  UNL1        0.0033
      3 C          62.9893   89.3144   11.8843 C.ar    1  UNL1        0.0382
      4 C          63.1880   87.9013   12.3464 C.ar    1  UNL1        0.1529
      5 C          64.1155   87.6091   13.4885 C.ar    1  UNL1        0.0881
      6 C          64.8441   88.7301   14.1685 C.ar    1  UNL1        0.0181
      7 N          64.3142   86.1960   13.9507 N.am    1  UNL1       -0.2529
      8 C          63.5855   85.0750   13.2707 C.2     1  UNL1        0.2697
      9 O          63.7843   83.6619   13.7329 O.2     1  UNL1       -0.2704
     10 C          62.6580   85.3671   12.1286 C.3     1  UNL1        0.2199
     11 C          61.6819   85.1413   11.0123 C.3     1  UNL1        0.0579
     12 O          62.4593   86.7802   11.6664 O.3     1  UNL1       -0.4686
     13 C          66.5114   91.9509   13.6899 C.ar    1  UNL1        0.0645
     14 N          67.2401   93.0719   14.3699 N.ar    1  UNL1       -0.2183
     15 C          66.8316   93.5062   15.7463 C.ar    1  UNL1        0.2145
     16 N          67.5603   94.6271   16.4262 N.pl3   1  UNL1       -0.3274
     17 N          65.6943   92.8195   16.4427 N.ar    1  UNL1       -0.1995
     18 C          64.9655   91.6985   15.7627 C.ar    1  UNL1        0.1293
     19 N          63.8282   91.0118   16.4591 N.pl3   1  UNL1       -0.3425
     20 C          65.3741   91.2642   14.3863 C.ar    1  UNL1        0.0449
     21 H          68.3068   95.0778   15.9692 H       1  UNL1        0.1452
     22 H          67.2922   94.9122   17.3296 H       1  UNL1        0.1452
     23 H          63.5601   91.2969   17.3625 H       1  UNL1        0.1437
     24 H          63.3499   90.2761   16.0128 H       1  UNL1        0.1437
     25 C          66.8436   92.4827   11.1686 C.3     1  UNL1        0.0067
     26 C          66.9200   91.5166   12.3135 C.3     1  UNL1        0.0460
     27 C          62.5178   83.8756   12.2030 C.ar    1  UNL1        0.0264
     28 C          61.8860   83.2409   13.4064 C.ar    1  UNL1        0.0293
     29 C          61.7458   81.7492   13.4808 C.ar    1  UNL1        0.1422
     30 F          61.1140   81.1146   14.6843 F       1  UNL1       -0.2041
     31 C          62.2372   80.8924   12.3521 C.ar    1  UNL1        0.0592
     32 C          62.8690   81.5272   11.1488 C.ar    1  UNL1        0.1422
     33 F          63.3605   80.6703   10.0199 F       1  UNL1       -0.2041
     34 C          63.0093   83.0187   11.0742 C.ar    1  UNL1        0.0293
     35 C          65.2416   85.9039   15.0928 C.3     1  UNL1        0.0985
     36 C          64.6859   85.4916   16.4237 C.3     1  UNL1        0.0245
     37 C          63.2318   85.7012   16.7267 C.3     1  UNL1        0.0335
     38 C          62.7947   86.9035   17.5100 C.3     1  UNL1        0.1372
     39 O          62.7963   88.2587   16.8671 O.3     1  UNL1       -0.3820
     40 H          63.7085   88.5195   16.6649 H       1  UNL1        0.2104
@<TRIPOS>BOND
     1    25    26    1
     2    26    13    1
     3    13    14   ar
     4    14    15   ar
     5    15    16    1
     6    15    17   ar
     7    17    18   ar
     8    18    19    1
     9    18    20   ar
    10    20     1    1
    11     1     2   ar
    12     2     3   ar
    13     3     4   ar
    14     4     5   ar
    15     5     6   ar
    16     5     7    1
    17     7    35    1
    18    35    36    1
    19    36    37    1
    20    37    38    1
    21    38    39    1
    22     7     8   am
    23     8     9    2
    24     8    10    1
    25    10    11    1
    26    10    27    1
    27    27    28   ar
    28    28    29   ar
    29    29    30    1
    30    29    31   ar
    31    31    32   ar
    32    32    33    1
    33    32    34   ar
    34    10    12    1
    35    20    13   ar
    36     6     1   ar
    37    34    27   ar
    38    12     4    1
    39    16    21    1
    40    16    22    1
    41    19    23    1
    42    19    24    1
    43    39    40    1
@<TRIPOS>MOLECULE
*****
 40 43 0 0 0
SMALL
GASTEIGER

@<TRIPOS>ATOM
      1 C          62.6756   84.0974   12.4431 C.ar    1  UNL1        0.0053
      2 C          61.9378   84.7854   11.3331 C.ar    1  UNL1        0.0033
      3 C          62.0152   86.2768   11.1926 C.ar    1  UNL1        0.0382
      4 C          62.8304   87.0801   12.1623 C.ar    1  UNL1        0.1529
      5 C          63.5681   86.3921   13.2723 C.ar    1  UNL1        0.0881
      6 C          63.4907   84.9007   13.4128 C.ar    1  UNL1        0.0181
      7 N          64.3833   87.1955   14.2419 N.am    1  UNL1       -0.2529
      8 C          64.4607   88.6868   14.1015 C.2     1  UNL1        0.2697
      9 O          65.2758   89.4902   15.0711 O.2     1  UNL1       -0.2704
     10 C          63.7229   89.3749   12.9914 C.3     1  UNL1        0.2199
     11 C          63.2058   90.4746   12.1120 C.3     1  UNL1        0.0579
     12 O          62.9077   88.5716   12.0218 O.3     1  UNL1       -0.4686
     13 C          62.9900   81.7232   11.4359 C.ar    1  UNL1        0.0645
     14 N          62.9127   80.2318   11.5763 N.ar    1  UNL1       -0.2183
     15 C          62.4435   79.6231   12.8645 C.ar    1  UNL1        0.2145
     16 N          62.3662   78.1317   13.0050 N.pl3   1  UNL1       -0.3274
     17 N          62.0517   80.5058   14.0123 N.ar    1  UNL1       -0.1995
     18 C          62.1290   81.9973   13.8718 C.ar    1  UNL1        0.1293
     19 N          61.7372   82.8800   15.0195 N.pl3   1  UNL1       -0.3425
     20 C          62.5982   82.6059   12.5836 C.ar    1  UNL1        0.0449
     21 H          62.6233   77.5524   12.2517 H       1  UNL1        0.1452
     22 H          62.0582   77.7322   13.8504 H       1  UNL1        0.1452
     23 H          61.4293   82.4805   15.8650 H       1  UNL1        0.1437
     24 H          61.7880   83.8589   14.9273 H       1  UNL1        0.1437
     25 C          64.7416   83.1091   10.1087 C.3     1  UNL1        0.0067
     26 C          63.4592   82.3320   10.1477 C.3     1  UNL1        0.0460
     27 C          64.3585   90.5602   13.6556 C.ar    1  UNL1        0.0264
     28 C          64.0061   90.9043   15.0724 C.ar    1  UNL1        0.0293
     29 C          64.6417   92.0896   15.7366 C.ar    1  UNL1        0.1422
     30 F          64.2892   92.4337   17.1535 F       1  UNL1       -0.2041
     31 C          65.6296   92.9307   14.9841 C.ar    1  UNL1        0.0592
     32 C          65.9820   92.5865   13.5673 C.ar    1  UNL1        0.1422
     33 F          66.9700   93.4277   12.8147 F       1  UNL1       -0.2041
     34 C          65.3465   91.4013   12.9030 C.ar    1  UNL1        0.0293
     35 C          65.1210   86.5074   15.3520 C.3     1  UNL1        0.0985
     36 C          64.3750   85.6457   16.3272 C.3     1  UNL1        0.0245
     37 C          62.9971   86.0371   16.7726 C.3     1  UNL1        0.0335
     38 C          62.8142   87.1744   17.7332 C.3     1  UNL1        0.1372
     39 O          63.1510   88.5739   17.3115 O.3     1  UNL1       -0.3820
     40 H          64.1061   88.6441   17.1568 H       1  UNL1        0.2104
@<TRIPOS>BOND
     1    25    26    1
     2    26    13    1
     3    13    14   ar
     4    14    15   ar
     5    15    16    1
     6    15    17   ar
     7    17    18   ar
     8    18    19    1
     9    18    20   ar
    10    20     1    1
    11     1     2   ar
    12     2     3   ar
    13     3     4   ar
    14     4     5   ar
    15     5     6   ar
    16     5     7    1
    17     7    35    1
    18    35    36    1
    19    36    37    1
    20    37    38    1
    21    38    39    1
    22     7     8   am
    23     8     9    2
    24     8    10    1
    25    10    11    1
    26    10    27    1
    27    27    28   ar
    28    28    29   ar
    29    29    30    1
    30    29    31   ar
    31    31    32   ar
    32    32    33    1
    33    32    34   ar
    34    10    12    1
    35    20    13   ar
    36     6     1   ar
    37    34    27   ar
    38    12     4    1
    39    16    21    1
    40    16    22    1
    41    19    23    1
    42    19    24    1
    43    39    40    1
@<TRIPOS>MOLECULE
*****
 40 43 0 0 0
SMALL
GASTEIGER

@<TRIPOS>ATOM
      1 C          62.7753   84.1003   11.7496 C.ar    1  UNL1        0.0053
      2 C          61.9844   84.9166   10.7708 C.ar    1  UNL1        0.0033
      3 C          61.9906   86.4136   10.8650 C.ar    1  UNL1        0.0382
      4 C          62.7878   87.0943   11.9380 C.ar    1  UNL1        0.1529
      5 C          63.5787   86.2780   12.9167 C.ar    1  UNL1        0.0881
      6 C          63.5724   84.7810   12.8225 C.ar    1  UNL1        0.0181
      7 N          64.3758   86.9587   13.9897 N.am    1  UNL1       -0.2529
      8 C          64.3820   88.4557   14.0839 C.2     1  UNL1        0.2697
      9 O          65.1792   89.1363   15.1569 O.2     1  UNL1       -0.2704
     10 C          63.5911   89.2721   13.1051 C.3     1  UNL1        0.2199
     11 C          63.0065   90.4692   12.4158 C.3     1  UNL1        0.0579
     12 O          62.7939   88.5914   12.0321 O.3     1  UNL1       -0.4686
     13 C          62.2050   81.7835   12.7778 C.ar    1  UNL1        0.0645
     14 N          62.1987   80.2865   12.6837 N.ar    1  UNL1       -0.2183
     15 C          62.7567   79.6092   11.4672 C.ar    1  UNL1        0.2145
     16 N          62.7505   78.1122   11.3731 N.pl3   1  UNL1       -0.3274
     17 N          63.3208   80.4289   10.3447 N.ar    1  UNL1       -0.1995
     18 C          63.3270   81.9260   10.4389 C.ar    1  UNL1        0.1293
     19 N          63.8911   82.7457    9.3165 N.pl3   1  UNL1       -0.3425
     20 C          62.7691   82.6032   11.6554 C.ar    1  UNL1        0.0449
     21 H          62.3802   77.5742   12.1097 H       1  UNL1        0.1452
     22 H          63.1166   77.6676   10.5746 H       1  UNL1        0.1452
     23 H          64.2573   82.3011    8.5180 H       1  UNL1        0.1437
     24 H          63.8952   83.7282    9.3783 H       1  UNL1        0.1437
     25 C          62.5155   82.6742   15.1987 C.3     1  UNL1        0.0067
     26 C          61.6470   82.4609   13.9944 C.3     1  UNL1        0.0460
     27 C          64.1852   90.3685   13.9386 C.ar    1  UNL1        0.0264
     28 C          65.3409   91.1676   13.4135 C.ar    1  UNL1        0.0293
     29 C          65.9350   92.2640   14.2471 C.ar    1  UNL1        0.1422
     30 F          67.0907   93.0631   13.7218 F       1  UNL1       -0.2041
     31 C          65.3735   92.5614   15.6058 C.ar    1  UNL1        0.0592
     32 C          64.2178   91.7623   16.1310 C.ar    1  UNL1        0.1422
     33 F          63.6562   92.0596   17.4898 F       1  UNL1       -0.2041
     34 C          63.6236   90.6658   15.2974 C.ar    1  UNL1        0.0293
     35 C          65.1667   86.1424   14.9685 C.3     1  UNL1        0.0985
     36 C          64.4787   85.4940   16.1330 C.3     1  UNL1        0.0245
     37 C          63.0846   85.9049   16.5042 C.3     1  UNL1        0.0335
     38 C          62.8616   86.8633   17.6363 C.3     1  UNL1        0.1372
     39 O          63.1561   88.3226   17.4526 O.3     1  UNL1       -0.3820
     40 H          64.1092   88.4460   17.3208 H       1  UNL1        0.2104
@<TRIPOS>BOND
     1    25    26    1
     2    26    13    1
     3    13    14   ar
     4    14    15   ar
     5    15    16    1
     6    15    17   ar
     7    17    18   ar
     8    18    19    1
     9    18    20   ar
    10    20     1    1
    11     1     2   ar
    12     2     3   ar
    13     3     4   ar
    14     4     5   ar
    15     5     6   ar
    16     5     7    1
    17     7    35    1
    18    35    36    1
    19    36    37    1
    20    37    38    1
    21    38    39    1
    22     7     8   am
    23     8     9    2
    24     8    10    1
    25    10    11    1
    26    10    27    1
    27    27    28   ar
    28    28    29   ar
    29    29    30    1
    30    29    31   ar
    31    31    32   ar
    32    32    33    1
    33    32    34   ar
    34    10    12    1
    35    20    13   ar
    36     6     1   ar
    37    34    27   ar
    38    12     4    1
    39    16    21    1
    40    16    22    1
    41    19    23    1
    42    19    24    1
    43    39    40    1
@<TRIPOS>MOLECULE
*****
 40 43 0 0 0
SMALL
GASTEIGER

@<TRIPOS>ATOM
      1 C          64.6209   90.0114   13.7458 C.ar    1  UNL1        0.0053
      2 C          63.6948   90.3142   12.6054 C.ar    1  UNL1        0.0033
      3 C          62.9753   89.1985   11.9071 C.ar    1  UNL1        0.0382
      4 C          63.1820   87.7801   12.3493 C.ar    1  UNL1        0.1529
      5 C          64.1081   87.4774   13.4897 C.ar    1  UNL1        0.0881
      6 C          64.8275   88.5930   14.1880 C.ar    1  UNL1        0.0181
      7 N          64.3147   86.0590   13.9319 N.am    1  UNL1       -0.2529
      8 C          63.5952   84.9434   13.2336 C.2     1  UNL1        0.2697
      9 O          63.8018   83.5250   13.6757 O.2     1  UNL1       -0.2704
     10 C          62.6690   85.2461   12.0931 C.3     1  UNL1        0.2199
     11 C          61.6975   85.0302   10.9708 C.3     1  UNL1        0.0579
     12 O          62.4624   86.6645   11.6509 O.3     1  UNL1       -0.4686
     13 C          64.7909   91.6906   15.7210 C.ar    1  UNL1        0.0645
     14 N          65.5104   92.8062   16.4194 N.ar    1  UNL1       -0.2183
     15 C          66.7795   93.3584   15.8409 C.ar    1  UNL1        0.2145
     16 N          67.4989   94.4740   16.5392 N.pl3   1  UNL1       -0.3274
     17 N          67.3290   92.7948   14.5640 N.ar    1  UNL1       -0.1995
     18 C          66.6095   91.6791   13.8657 C.ar    1  UNL1        0.1293
     19 N          67.1591   91.1156   12.5888 N.pl3   1  UNL1       -0.3425
     20 C          65.3405   91.1271   14.4442 C.ar    1  UNL1        0.0449
     21 H          67.1382   94.8438   17.3773 H       1  UNL1        0.1452
     22 H          68.3319   94.8363   16.1595 H       1  UNL1        0.1452
     23 H          67.9920   91.4779   12.2091 H       1  UNL1        0.1437
     24 H          66.6868   90.3834   12.1304 H       1  UNL1        0.1437
     25 C          63.4848   89.7327   16.8215 C.3     1  UNL1        0.0067
     26 C          63.5218   91.1385   16.2996 C.3     1  UNL1        0.0460
     27 C          62.5383   83.7528   12.1455 C.ar    1  UNL1        0.0264
     28 C          63.0547   82.9145   11.0139 C.ar    1  UNL1        0.0293
     29 C          62.9239   81.4211   11.0663 C.ar    1  UNL1        0.1422
     30 F          63.4405   80.5828    9.9346 F       1  UNL1       -0.2041
     31 C          62.2767   80.7660   12.2502 C.ar    1  UNL1        0.0592
     32 C          61.7602   81.6043   13.3818 C.ar    1  UNL1        0.1422
     33 F          61.1129   80.9491   14.5659 F       1  UNL1       -0.2041
     34 C          61.8910   83.0976   13.3295 C.ar    1  UNL1        0.0293
     35 C          65.2408   85.7563   15.0723 C.3     1  UNL1        0.0985
     36 C          64.6821   85.4207   16.4233 C.3     1  UNL1        0.0245
     37 C          63.5724   86.2473   17.0025 C.3     1  UNL1        0.0335
     38 C          62.1936   85.6698   17.1272 C.3     1  UNL1        0.1372
     39 O          61.4717   85.1815   15.9064 O.3     1  UNL1       -0.3820
     40 H          61.2812   85.9317   15.3218 H       1  UNL1        0.2104
@<TRIPOS>BOND
     1    25    26    1
     2    26    13    1
     3    13    14   ar
     4    14    15   ar
     5    15    16    1
     6    15    17   ar
     7    17    18   ar
     8    18    19    1
     9    18    20   ar
    10    20     1    1
    11     1     2   ar
    12     2     3   ar
    13     3     4   ar
    14     4     5   ar
    15     5     6   ar
    16     5     7    1
    17     7    35    1
    18    35    36    1
    19    36    37    1
    20    37    38    1
    21    38    39    1
    22     7     8   am
    23     8     9    2
    24     8    10    1
    25    10    11    1
    26    10    27    1
    27    27    28   ar
    28    28    29   ar
    29    29    30    1
    30    29    31   ar
    31    31    32   ar
    32    32    33    1
    33    32    34   ar
    34    10    12    1
    35    20    13   ar
    36     6     1   ar
    37    34    27   ar
    38    12     4    1
    39    16    21    1
    40    16    22    1
    41    19    23    1
    42    19    24    1
    43    39    40    1
@<TRIPOS>MOLECULE
*****
 40 43 0 0 0
SMALL
GASTEIGER

@<TRIPOS>ATOM
      1 C          56.1678   95.7598   -2.9354 C.ar    1  UNL1        0.0053
      2 C          56.1298   96.8554   -1.9117 C.ar    1  UNL1        0.0033
      3 C          57.1016   96.8483   -0.7691 C.ar    1  UNL1        0.0382
      4 C          58.1115   95.7456   -0.6503 C.ar    1  UNL1        0.1529
      5 C          58.1495   94.6499   -1.6740 C.ar    1  UNL1        0.0881
      6 C          57.1777   94.6570   -2.8166 C.ar    1  UNL1        0.0181
      7 N          59.1594   93.5472   -1.5552 N.am    1  UNL1       -0.2529
      8 C          60.1312   93.5401   -0.4126 C.2     1  UNL1        0.2697
      9 O          61.1411   92.4374   -0.2938 O.2     1  UNL1       -0.2704
     10 C          60.0932   94.6358    0.6112 C.3     1  UNL1        0.2199
     11 C          60.4487   95.4462    1.8223 C.3     1  UNL1        0.0579
     12 O          59.0833   95.7385    0.4924 O.3     1  UNL1       -0.4686
     13 C          55.6931   95.6264   -5.4863 C.ar    1  UNL1        0.0645
     14 N          54.7214   95.6334   -6.6289 N.ar    1  UNL1       -0.2183
     15 C          53.2524   95.7809   -6.3633 C.ar    1  UNL1        0.2145
     16 N          52.2806   95.7879   -7.5059 N.pl3   1  UNL1       -0.3274
     17 N          52.7553   95.9213   -4.9550 N.ar    1  UNL1       -0.1995
     18 C          53.7271   95.9142   -3.8124 C.ar    1  UNL1        0.1293
     19 N          53.2300   96.0546   -2.4041 N.pl3   1  UNL1       -0.3425
     20 C          55.1960   95.7668   -4.0780 C.ar    1  UNL1        0.0449
     21 H          52.6069   95.6958   -8.4302 H       1  UNL1        0.1452
     22 H          51.3165   95.8847   -7.3315 H       1  UNL1        0.1452
     23 H          52.2659   96.1514   -2.2298 H       1  UNL1        0.1437
     24 H          53.8678   96.0500   -1.6542 H       1  UNL1        0.1437
     25 C          57.6796   95.5388   -7.1585 C.3     1  UNL1        0.0067
     26 C          57.1621   95.4790   -5.7519 C.3     1  UNL1        0.0460
     27 C          61.2265   93.8145    1.1506 C.ar    1  UNL1        0.0264
     28 C          62.5819   93.8965    0.5132 C.ar    1  UNL1        0.0293
     29 C          63.7153   93.0751    1.0526 C.ar    1  UNL1        0.1422
     30 F          65.0707   93.1571    0.4151 F       1  UNL1       -0.2041
     31 C          63.4933   92.1720    2.2294 C.ar    1  UNL1        0.0592
     32 C          62.1380   92.0901    2.8668 C.ar    1  UNL1        0.1422
     33 F          61.9160   91.1869    4.0437 F       1  UNL1       -0.2041
     34 C          61.0046   92.9113    2.3274 C.ar    1  UNL1        0.0293
     35 C          59.1975   92.4516   -2.5789 C.3     1  UNL1        0.0985
     36 C          57.9306   91.7561   -2.9806 C.3     1  UNL1        0.0245
     37 C          57.5679   91.6371   -4.4313 C.3     1  UNL1        0.0335
     38 C          56.1556   91.8814   -4.8737 C.3     1  UNL1        0.1372
     39 O          55.8591   92.1565   -6.3181 O.3     1  UNL1       -0.3820
     40 H          56.2582   93.0025   -6.5747 H       1  UNL1        0.2104
@<TRIPOS>BOND
     1    25    26    1
     2    26    13    1
     3    13    14   ar
     4    14    15   ar
     5    15    16    1
     6    15    17   ar
     7    17    18   ar
     8    18    19    1
     9    18    20   ar
    10    20     1    1
    11     1     2   ar
    12     2     3   ar
    13     3     4   ar
    14     4     5   ar
    15     5     6   ar
    16     5     7    1
    17     7    35    1
    18    35    36    1
    19    36    37    1
    20    37    38    1
    21    38    39    1
    22     7     8   am
    23     8     9    2
    24     8    10    1
    25    10    11    1
    26    10    27    1
    27    27    28   ar
    28    28    29   ar
    29    29    30    1
    30    29    31   ar
    31    31    32   ar
    32    32    33    1
    33    32    34   ar
    34    10    12    1
    35    20    13   ar
    36     6     1   ar
    37    34    27   ar
    38    12     4    1
    39    16    21    1
    40    16    22    1
    41    19    23    1
    42    19    24    1
    43    39    40    1
@<TRIPOS>MOLECULE
*****
 40 43 0 0 0
SMALL
GASTEIGER

@<TRIPOS>ATOM
      1 C          57.9618   94.8784   -4.9758 C.ar    1  UNL1        0.0053
      2 C          59.1994   94.7874   -5.8184 C.ar    1  UNL1        0.0033
      3 C          60.5303   94.5408   -5.1721 C.ar    1  UNL1        0.0382
      4 C          60.6236   94.3852   -3.6831 C.ar    1  UNL1        0.1529
      5 C          59.3860   94.4762   -2.8404 C.ar    1  UNL1        0.0881
      6 C          58.0551   94.7228   -3.4868 C.ar    1  UNL1        0.0181
      7 N          59.4794   94.3206   -1.3515 N.am    1  UNL1       -0.2529
      8 C          60.8103   94.0740   -0.7051 C.2     1  UNL1        0.2697
      9 O          60.9036   93.9184    0.7839 O.2     1  UNL1       -0.2704
     10 C          62.0480   93.9830   -1.5477 C.3     1  UNL1        0.2199
     11 C          63.4922   93.8181   -1.9179 C.3     1  UNL1        0.0579
     12 O          61.9546   94.1386   -3.0367 O.3     1  UNL1       -0.4686
     13 C          55.6766   96.1138   -5.0205 C.ar    1  UNL1        0.0645
     14 N          54.3457   96.3604   -5.6668 N.ar    1  UNL1       -0.2183
     15 C          53.9688   95.6183   -6.9147 C.ar    1  UNL1        0.2145
     16 N          52.6379   95.8649   -7.5610 N.pl3   1  UNL1       -0.3274
     17 N          54.9230   94.6295   -7.5163 N.ar    1  UNL1       -0.1995
     18 C          56.2540   94.3829   -6.8700 C.ar    1  UNL1        0.1293
     19 N          57.2081   93.3941   -7.4715 N.pl3   1  UNL1       -0.3425
     20 C          56.6308   95.1250   -5.6221 C.ar    1  UNL1        0.0449
     21 H          52.0117   96.5139   -7.1661 H       1  UNL1        0.1452
     22 H          52.3906   95.3778   -8.3800 H       1  UNL1        0.1452
     23 H          56.9608   92.9070   -8.2906 H       1  UNL1        0.1437
     24 H          58.0817   93.2322   -7.0474 H       1  UNL1        0.1437
     25 C          55.2698   96.6479   -2.5107 C.3     1  UNL1        0.0067
     26 C          56.0535   96.8560   -3.7726 C.3     1  UNL1        0.0460
     27 C          62.6428   93.7701   -0.1874 C.ar    1  UNL1        0.0264
     28 C          62.4187   92.4747    0.5349 C.ar    1  UNL1        0.0293
     29 C          63.0136   92.2619    1.8954 C.ar    1  UNL1        0.1422
     30 F          62.7894   90.9664    2.6176 F       1  UNL1       -0.2041
     31 C          63.8326   93.3443    2.5335 C.ar    1  UNL1        0.0592
     32 C          64.0568   94.6397    1.8113 C.ar    1  UNL1        0.1422
     33 F          64.8759   95.7222    2.4495 F       1  UNL1       -0.2041
     34 C          63.4619   94.8527    0.4508 C.ar    1  UNL1        0.0293
     35 C          58.2418   94.4116   -0.5088 C.3     1  UNL1        0.0985
     36 C          57.0904   93.4848   -0.7646 C.3     1  UNL1        0.0245
     37 C          57.3023   92.2245   -1.5500 C.3     1  UNL1        0.0335
     38 C          56.1638   91.6170   -2.3146 C.3     1  UNL1        0.1372
     39 O          56.4225   90.5053   -3.2878 O.3     1  UNL1       -0.3820
     40 H          56.9542   90.8398   -4.0270 H       1  UNL1        0.2104
@<TRIPOS>BOND
     1    25    26    1
     2    26    13    1
     3    13    14   ar
     4    14    15   ar
     5    15    16    1
     6    15    17   ar
     7    17    18   ar
     8    18    19    1
     9    18    20   ar
    10    20     1    1
    11     1     2   ar
    12     2     3   ar
    13     3     4   ar
    14     4     5   ar
    15     5     6   ar
    16     5     7    1
    17     7    35    1
    18    35    36    1
    19    36    37    1
    20    37    38    1
    21    38    39    1
    22     7     8   am
    23     8     9    2
    24     8    10    1
    25    10    11    1
    26    10    27    1
    27    27    28   ar
    28    28    29   ar
    29    29    30    1
    30    29    31   ar
    31    31    32   ar
    32    32    33    1
    33    32    34   ar
    34    10    12    1
    35    20    13   ar
    36     6     1   ar
    37    34    27   ar
    38    12     4    1
    39    16    21    1
    40    16    22    1
    41    19    23    1
    42    19    24    1
    43    39    40    1
