@<TRIPOS>MOLECULE
*****
 30 34 0 0 0
SMALL
GASTEIGER

@<TRIPOS>ATOM
      1 C          62.1962   89.7641   10.5548 C.ar    1  UNL1        0.1391
      2 C          62.8871   91.0089   10.0825 C.ar    1  UNL1        0.0370
      3 C          63.8794   91.6990   10.9709 C.ar    1  UNL1        0.0044
      4 C          64.1807   91.1442   12.3316 C.ar    1  UNL1        0.0159
      5 C          63.4898   89.8993   12.8039 C.ar    1  UNL1        0.0044
      6 C          62.4976   89.2093   11.9155 C.ar    1  UNL1        0.0370
      7 C          65.1730   91.8343   13.2200 C.2     1  UNL1        0.0861
      8 N          65.0458   92.0254   14.7023 N.2     1  UNL1       -0.1523
      9 N          66.2608   92.7636   15.1805 N.2     1  UNL1       -0.1510
     10 C          67.1390   93.0288   13.9937 C.2     1  UNL1        0.1016
     11 C          66.4667   92.4544   12.7820 C.3     1  UNL1        0.0895
     12 C          66.9953   92.4934   11.3788 C.3     1  UNL1        0.0385
     13 C          66.8390   93.7355   10.5526 C.ar    1  UNL1       -0.0183
     14 C          67.5547   93.8583    9.2401 C.ar    1  UNL1        0.0164
     15 C          67.3983   95.1005    8.4140 C.ar    1  UNL1        0.0986
     16 N          66.5263   96.2199    8.9004 N.ar    1  UNL1       -0.2423
     17 C          65.8106   96.0972   10.2128 C.ar    1  UNL1        0.0986
     18 C          65.9669   94.8549   11.0391 C.ar    1  UNL1        0.0164
     19 O          61.2040   89.0740    9.6664 O.3     1  UNL1       -0.4690
     20 C          60.6379   87.7435   10.0658 C.3     1  UNL1        0.2508
     21 C          64.4146   82.2556   11.7596 C.ar    1  UNL1        0.0001
     22 C          63.7077   82.7614   12.9820 C.ar    1  UNL1        0.0015
     23 C          62.8110   83.9601   12.8877 C.ar    1  UNL1        0.0191
     24 C          62.6212   84.6531   11.5710 C.ar    1  UNL1        0.0810
     25 N          61.7244   85.8518   11.4768 N.ar    1  UNL1       -0.2460
     26 C          61.5347   86.5448   10.1600 C.ar    1  UNL1        0.1026
     27 C          62.2416   86.0390    8.9375 C.ar    1  UNL1        0.0184
     28 C          63.1383   84.8402    9.0318 C.ar    1  UNL1        0.0028
     29 C          63.3281   84.1473   10.3486 C.ar    1  UNL1        0.0177
     30 C          64.2248   82.9485   10.4429 C.ar    1  UNL1        0.0015
@<TRIPOS>BOND
     1    21    22   ar
     2    22    23   ar
     3    23    24   ar
     4    24    25   ar
     5    25    26   ar
     6    26    20    1
     7    20    19    1
     8    19     1    1
     9     1     2   ar
    10     2     3   ar
    11     3     4   ar
    12     4     7    1
    13     7     8    2
    14     8     9    1
    15     9    10    2
    16    10    11    1
    17    11    12    1
    18    12    13    1
    19    13    14   ar
    20    14    15   ar
    21    15    16   ar
    22    16    17   ar
    23    17    18   ar
    24     4     5   ar
    25     5     6   ar
    26    26    27   ar
    27    27    28   ar
    28    28    29   ar
    29    29    30   ar
    30    30    21   ar
    31    29    24   ar
    32     6     1   ar
    33    11     7    1
    34    18    13   ar
@<TRIPOS>MOLECULE
*****
 30 34 0 0 0
SMALL
GASTEIGER

@<TRIPOS>ATOM
      1 C          61.3914   89.8048   10.4308 C.ar    1  UNL1        0.1391
      2 C          61.2261   89.6338   11.9118 C.ar    1  UNL1        0.0370
      3 C          62.2859   90.1348   12.8476 C.ar    1  UNL1        0.0044
      4 C          63.5111   90.8068   12.3024 C.ar    1  UNL1        0.0159
      5 C          63.6765   90.9777   10.8214 C.ar    1  UNL1        0.0044
      6 C          62.6167   90.4767    9.8856 C.ar    1  UNL1        0.0370
      7 C          64.5710   91.3078   13.2382 C.2     1  UNL1        0.0861
      8 N          65.7920   92.0881   12.8508 N.2     1  UNL1       -0.1523
      9 N          66.5716   92.3790   14.0989 N.2     1  UNL1       -0.1510
     10 C          65.8323   91.7785   15.2577 C.2     1  UNL1        0.1016
     11 C          64.5959   91.1165   14.7257 C.3     1  UNL1        0.0895
     12 C          63.5653   90.3905   15.5387 C.3     1  UNL1        0.0385
     13 C          63.6612   88.9044   15.7172 C.ar    1  UNL1       -0.0183
     14 C          63.0177   88.2482   16.9026 C.ar    1  UNL1        0.0164
     15 C          63.1137   86.7619   17.0810 C.ar    1  UNL1        0.0986
     16 N          63.8532   85.9319   16.0740 N.ar    1  UNL1       -0.2423
     17 C          64.4968   86.5879   14.8886 C.ar    1  UNL1        0.0986
     18 C          64.4008   88.0743   14.7101 C.ar    1  UNL1        0.0164
     19 O          60.3316   89.3037    9.4951 O.3     1  UNL1       -0.4690
     20 C          59.9231   87.8607    9.5280 C.3     1  UNL1        0.2508
     21 C          64.4006   82.9583   11.3081 C.ar    1  UNL1        0.0001
     22 C          63.6632   83.4174   12.5310 C.ar    1  UNL1        0.0015
     23 C          62.6203   84.4897   12.4195 C.ar    1  UNL1        0.0191
     24 C          62.3146   85.1029   11.0852 C.ar    1  UNL1        0.0810
     25 N          61.2717   86.1752   10.9738 N.ar    1  UNL1       -0.2460
     26 C          60.9661   86.7884    9.6395 C.ar    1  UNL1        0.1026
     27 C          61.7034   86.3294    8.4165 C.ar    1  UNL1        0.0184
     28 C          62.7464   85.2571    8.5279 C.ar    1  UNL1        0.0028
     29 C          63.0520   84.6438    9.8623 C.ar    1  UNL1        0.0177
     30 C          64.0949   83.5715    9.9737 C.ar    1  UNL1        0.0015
@<TRIPOS>BOND
     1    21    22   ar
     2    22    23   ar
     3    23    24   ar
     4    24    25   ar
     5    25    26   ar
     6    26    20    1
     7    20    19    1
     8    19     1    1
     9     1     2   ar
    10     2     3   ar
    11     3     4   ar
    12     4     7    1
    13     7     8    2
    14     8     9    1
    15     9    10    2
    16    10    11    1
    17    11    12    1
    18    12    13    1
    19    13    14   ar
    20    14    15   ar
    21    15    16   ar
    22    16    17   ar
    23    17    18   ar
    24     4     5   ar
    25     5     6   ar
    26    26    27   ar
    27    27    28   ar
    28    28    29   ar
    29    29    30   ar
    30    30    21   ar
    31    29    24   ar
    32     6     1   ar
    33    11     7    1
    34    18    13   ar
@<TRIPOS>MOLECULE
*****
 30 34 0 0 0
SMALL
GASTEIGER

@<TRIPOS>ATOM
      1 C          62.7845   89.4008   12.3672 C.ar    1  UNL1        0.1391
      2 C          63.5319   88.8057   13.5236 C.ar    1  UNL1        0.0370
      3 C          64.6105   89.5945   14.2052 C.ar    1  UNL1        0.0044
      4 C          64.9416   90.9783   13.7306 C.ar    1  UNL1        0.0159
      5 C          64.1941   91.5734   12.5741 C.ar    1  UNL1        0.0044
      6 C          63.1156   90.7847   11.8925 C.ar    1  UNL1        0.0370
      7 C          66.0201   91.7670   14.4122 C.2     1  UNL1        0.0861
      8 N          65.9325   92.3846   15.7763 N.2     1  UNL1       -0.1523
      9 N          67.2339   93.0759   16.0567 N.2     1  UNL1       -0.1510
     10 C          68.1258   92.8855   14.8658 C.2     1  UNL1        0.1016
     11 C          67.3756   92.0766   13.8495 C.3     1  UNL1        0.0895
     12 C          67.8906   91.6518   12.5062 C.3     1  UNL1        0.0385
     13 C          67.6603   92.5207   11.3056 C.ar    1  UNL1       -0.0183
     14 C          66.7115   93.6795   11.3892 C.ar    1  UNL1        0.0164
     15 C          66.4812   94.5485   10.1884 C.ar    1  UNL1        0.0986
     16 N          67.1998   94.2587    8.9040 N.ar    1  UNL1       -0.2423
     17 C          68.1486   93.1000    8.8203 C.ar    1  UNL1        0.0986
     18 C          68.3789   92.2309   10.0211 C.ar    1  UNL1        0.0164
     19 O          61.7060   88.6121   11.6855 O.3     1  UNL1       -0.4690
     20 C          62.0517   87.6930   10.5515 C.3     1  UNL1        0.2508
     21 C          63.3780   81.4287   13.0513 C.ar    1  UNL1        0.0001
     22 C          62.9262   82.3186   14.1710 C.ar    1  UNL1        0.0015
     23 C          62.5706   83.7495   13.8950 C.ar    1  UNL1        0.0191
     24 C          62.6668   84.2904   12.4993 C.ar    1  UNL1        0.0810
     25 N          62.3112   85.7212   12.2233 N.ar    1  UNL1       -0.2460
     26 C          62.4073   86.2622   10.8275 C.ar    1  UNL1        0.1026
     27 C          62.8591   85.3722    9.7077 C.ar    1  UNL1        0.0184
     28 C          63.2147   83.9413    9.9837 C.ar    1  UNL1        0.0028
     29 C          63.1185   83.4004   11.3795 C.ar    1  UNL1        0.0177
     30 C          63.4741   81.9696   11.6555 C.ar    1  UNL1        0.0015
@<TRIPOS>BOND
     1    21    22   ar
     2    22    23   ar
     3    23    24   ar
     4    24    25   ar
     5    25    26   ar
     6    26    20    1
     7    20    19    1
     8    19     1    1
     9     1     2   ar
    10     2     3   ar
    11     3     4   ar
    12     4     7    1
    13     7     8    2
    14     8     9    1
    15     9    10    2
    16    10    11    1
    17    11    12    1
    18    12    13    1
    19    13    14   ar
    20    14    15   ar
    21    15    16   ar
    22    16    17   ar
    23    17    18   ar
    24     4     5   ar
    25     5     6   ar
    26    26    27   ar
    27    27    28   ar
    28    28    29   ar
    29    29    30   ar
    30    30    21   ar
    31    29    24   ar
    32     6     1   ar
    33    11     7    1
    34    18    13   ar
@<TRIPOS>MOLECULE
*****
 30 34 0 0 0
SMALL
GASTEIGER

@<TRIPOS>ATOM
      1 C          61.9514   86.9840    9.8610 C.ar    1  UNL1        0.1391
      2 C          62.6973   85.9322    9.0947 C.ar    1  UNL1        0.0370
      3 C          63.0628   84.6379    9.7589 C.ar    1  UNL1        0.0044
      4 C          62.6826   84.3955   11.1895 C.ar    1  UNL1        0.0159
      5 C          61.9367   85.4474   11.9559 C.ar    1  UNL1        0.0044
      6 C          61.5711   86.7416   11.2916 C.ar    1  UNL1        0.0370
      7 C          63.0481   83.1012   11.8537 C.2     1  UNL1        0.0861
      8 N          62.5110   81.7461   11.5000 N.2     1  UNL1       -0.1523
      9 N          63.1459   80.7422   12.4160 N.2     1  UNL1       -0.1510
     10 C          64.0755   81.4769   13.3359 C.2     1  UNL1        0.1016
     11 C          64.0150   82.9348   12.9884 C.3     1  UNL1        0.0895
     12 C          64.7861   84.0335   13.6580 C.3     1  UNL1        0.0385
     13 C          64.1139   84.9115   14.6715 C.ar    1  UNL1       -0.0183
     14 C          64.5267   86.3468   14.8118 C.ar    1  UNL1        0.0164
     15 C          63.8545   87.2248   15.8253 C.ar    1  UNL1        0.0986
     16 N          62.7696   86.6676   16.6984 N.ar    1  UNL1       -0.2423
     17 C          62.3567   85.2325   16.5582 C.ar    1  UNL1        0.0986
     18 C          63.0289   84.3543   15.5447 C.ar    1  UNL1        0.0164
     19 O          61.5859   88.2783    9.1967 O.3     1  UNL1       -0.4690
     20 C          61.2745   89.4868   10.0291 C.3     1  UNL1        0.2508
     21 C          66.0248   92.2097   14.1848 C.ar    1  UNL1        0.0001
     22 C          65.2336   91.1880   14.9465 C.ar    1  UNL1        0.0015
     23 C          64.1253   90.4391   14.2677 C.ar    1  UNL1        0.0191
     24 C          63.8082   90.7118   12.8272 C.ar    1  UNL1        0.0810
     25 N          62.6999   89.9629   12.1484 N.ar    1  UNL1       -0.2460
     26 C          62.3828   90.2357   10.7079 C.ar    1  UNL1        0.1026
     27 C          63.1740   91.2574    9.9462 C.ar    1  UNL1        0.0184
     28 C          64.2823   92.0063   10.6250 C.ar    1  UNL1        0.0028
     29 C          64.5994   91.7335   12.0655 C.ar    1  UNL1        0.0177
     30 C          65.7077   92.4824   12.7444 C.ar    1  UNL1        0.0015
@<TRIPOS>BOND
     1    21    22   ar
     2    22    23   ar
     3    23    24   ar
     4    24    25   ar
     5    25    26   ar
     6    26    20    1
     7    20    19    1
     8    19     1    1
     9     1     2   ar
    10     2     3   ar
    11     3     4   ar
    12     4     7    1
    13     7     8    2
    14     8     9    1
    15     9    10    2
    16    10    11    1
    17    11    12    1
    18    12    13    1
    19    13    14   ar
    20    14    15   ar
    21    15    16   ar
    22    16    17   ar
    23    17    18   ar
    24     4     5   ar
    25     5     6   ar
    26    26    27   ar
    27    27    28   ar
    28    28    29   ar
    29    29    30   ar
    30    30    21   ar
    31    29    24   ar
    32     6     1   ar
    33    11     7    1
    34    18    13   ar
@<TRIPOS>MOLECULE
*****
 30 34 0 0 0
SMALL
GASTEIGER

@<TRIPOS>ATOM
      1 C          61.7844   87.0554    9.7351 C.ar    1  UNL1        0.1391
      2 C          61.2839   86.7767   11.1214 C.ar    1  UNL1        0.0370
      3 C          61.6893   85.5160   11.8259 C.ar    1  UNL1        0.0044
      4 C          62.5954   84.5341   11.1441 C.ar    1  UNL1        0.0159
      5 C          63.0960   84.8127    9.7578 C.ar    1  UNL1        0.0044
      6 C          62.6905   86.0734    9.0533 C.ar    1  UNL1        0.0370
      7 C          63.0009   83.2734   11.8486 C.2     1  UNL1        0.0861
      8 N          62.4731   81.8977   11.5679 N.2     1  UNL1       -0.1523
      9 N          63.1513   80.9411   12.5033 N.2     1  UNL1       -0.1510
     10 C          64.0983   81.7257   13.3622 C.2     1  UNL1        0.1016
     11 C          64.0053   83.1671   12.9575 C.3     1  UNL1        0.0895
     12 C          64.7807   84.3028   13.5567 C.3     1  UNL1        0.0385
     13 C          64.1483   85.1744   14.6008 C.ar    1  UNL1       -0.0183
     14 C          64.4524   86.6428   14.6367 C.ar    1  UNL1        0.0164
     15 C          63.8199   87.5144   15.6809 C.ar    1  UNL1        0.0986
     16 N          62.8833   86.9175   16.6891 N.ar    1  UNL1       -0.2423
     17 C          62.5791   85.4492   16.6533 C.ar    1  UNL1        0.0986
     18 C          63.2116   84.5775   15.6091 C.ar    1  UNL1        0.0164
     19 O          61.3789   88.3160    9.0306 O.3     1  UNL1       -0.4690
     20 C          61.1134   89.5639    9.8196 C.3     1  UNL1        0.2508
     21 C          66.3420   92.8407   12.8484 C.ar    1  UNL1        0.0001
     22 C          66.2400   93.2923   11.4217 C.ar    1  UNL1        0.0015
     23 C          65.1738   92.7272   10.5306 C.ar    1  UNL1        0.0191
     24 C          64.2097   91.7106   11.0662 C.ar    1  UNL1        0.0810
     25 N          63.1436   91.1456   10.1751 N.ar    1  UNL1       -0.2460
     26 C          62.1795   90.1289   10.7107 C.ar    1  UNL1        0.1026
     27 C          62.2815   89.6773   12.1375 C.ar    1  UNL1        0.0184
     28 C          63.3477   90.2423   13.0286 C.ar    1  UNL1        0.0028
     29 C          64.3118   91.2590   12.4929 C.ar    1  UNL1        0.0177
     30 C          65.3779   91.8240   13.3840 C.ar    1  UNL1        0.0015
@<TRIPOS>BOND
     1    21    22   ar
     2    22    23   ar
     3    23    24   ar
     4    24    25   ar
     5    25    26   ar
     6    26    20    1
     7    20    19    1
     8    19     1    1
     9     1     2   ar
    10     2     3   ar
    11     3     4   ar
    12     4     7    1
    13     7     8    2
    14     8     9    1
    15     9    10    2
    16    10    11    1
    17    11    12    1
    18    12    13    1
    19    13    14   ar
    20    14    15   ar
    21    15    16   ar
    22    16    17   ar
    23    17    18   ar
    24     4     5   ar
    25     5     6   ar
    26    26    27   ar
    27    27    28   ar
    28    28    29   ar
    29    29    30   ar
    30    30    21   ar
    31    29    24   ar
    32     6     1   ar
    33    11     7    1
    34    18    13   ar
@<TRIPOS>MOLECULE
*****
 30 34 0 0 0
SMALL
GASTEIGER

@<TRIPOS>ATOM
      1 C          63.7771   84.8610   15.6888 C.ar    1  UNL1        0.1391
      2 C          64.6133   85.6390   14.7165 C.ar    1  UNL1        0.0370
      3 C          64.5771   87.1385   14.7282 C.ar    1  UNL1        0.0044
      4 C          63.7046   87.8600   15.7122 C.ar    1  UNL1        0.0159
      5 C          62.8684   87.0820   16.6846 C.ar    1  UNL1        0.0044
      6 C          62.9046   85.5824   16.6729 C.ar    1  UNL1        0.0370
      7 C          63.6684   89.3595   15.7239 C.2     1  UNL1        0.0861
      8 N          63.5116   90.2282   16.9366 N.2     1  UNL1       -0.1523
      9 N          63.5289   91.6592   16.4872 N.2     1  UNL1       -0.1510
     10 C          63.6964   91.6749   14.9966 C.2     1  UNL1        0.1016
     11 C          63.7826   90.2536   14.5249 C.3     1  UNL1        0.0895
     12 C          63.9531   89.8052   13.1037 C.3     1  UNL1        0.0385
     13 C          62.7815   89.8189   12.1672 C.ar    1  UNL1       -0.0183
     14 C          61.3868   89.7142   12.7092 C.ar    1  UNL1        0.0164
     15 C          60.2152   89.7280   11.7726 C.ar    1  UNL1        0.0986
     16 N          60.4384   89.8465   10.2940 N.ar    1  UNL1       -0.2423
     17 C          61.8330   89.9512    9.7520 C.ar    1  UNL1        0.0986
     18 C          63.0047   89.9374   10.6886 C.ar    1  UNL1        0.0164
     19 O          63.8134   83.3614   15.6771 O.3     1  UNL1       -0.4690
     20 C          63.1222   82.6030   14.5829 C.3     1  UNL1        0.2508
     21 C          62.6128   85.6993    8.4671 C.ar    1  UNL1        0.0001
     22 C          61.6858   86.3711    9.4363 C.ar    1  UNL1        0.0015
     23 C          61.6023   85.8862   10.8533 C.ar    1  UNL1        0.0191
     24 C          62.4457   84.7295   11.3011 C.ar    1  UNL1        0.0810
     25 N          62.3622   84.2446   12.7181 N.ar    1  UNL1       -0.2460
     26 C          63.2057   83.0879   13.1659 C.ar    1  UNL1        0.1026
     27 C          64.1328   82.4161   12.1967 C.ar    1  UNL1        0.0184
     28 C          64.2163   82.9010   10.7797 C.ar    1  UNL1        0.0028
     29 C          63.3727   84.0578   10.3319 C.ar    1  UNL1        0.0177
     30 C          63.4563   84.5427    8.9149 C.ar    1  UNL1        0.0015
@<TRIPOS>BOND
     1    21    22   ar
     2    22    23   ar
     3    23    24   ar
     4    24    25   ar
     5    25    26   ar
     6    26    20    1
     7    20    19    1
     8    19     1    1
     9     1     2   ar
    10     2     3   ar
    11     3     4   ar
    12     4     7    1
    13     7     8    2
    14     8     9    1
    15     9    10    2
    16    10    11    1
    17    11    12    1
    18    12    13    1
    19    13    14   ar
    20    14    15   ar
    21    15    16   ar
    22    16    17   ar
    23    17    18   ar
    24     4     5   ar
    25     5     6   ar
    26    26    27   ar
    27    27    28   ar
    28    28    29   ar
    29    29    30   ar
    30    30    21   ar
    31    29    24   ar
    32     6     1   ar
    33    11     7    1
    34    18    13   ar
@<TRIPOS>MOLECULE
*****
 30 34 0 0 0
SMALL
GASTEIGER

@<TRIPOS>ATOM
      1 C          63.3140   90.8760   11.7365 C.ar    1  UNL1        0.1391
      2 C          62.6673   89.6843   12.3781 C.ar    1  UNL1        0.0370
      3 C          61.8555   88.7341   11.5486 C.ar    1  UNL1        0.0044
      4 C          61.6904   88.9755   10.0774 C.ar    1  UNL1        0.0159
      5 C          62.3371   90.1672    9.4357 C.ar    1  UNL1        0.0044
      6 C          63.1489   91.1174   10.2652 C.ar    1  UNL1        0.0370
      7 C          60.8786   88.0253    9.2479 C.2     1  UNL1        0.0861
      8 N          59.4570   88.2268    8.8140 N.2     1  UNL1       -0.1523
      9 N          59.0457   87.0328    8.0046 N.2     1  UNL1       -0.1510
     10 C          60.2132   86.0933    7.9382 C.2     1  UNL1        0.1016
     11 C          61.3460   86.7068    8.7066 C.3     1  UNL1        0.0895
     12 C          62.7072   86.1069    8.8998 C.3     1  UNL1        0.0385
     13 C          62.9217   85.0557    9.9480 C.ar    1  UNL1       -0.0183
     14 C          63.6841   83.8079    9.6138 C.ar    1  UNL1        0.0164
     15 C          63.8986   82.7567   10.6621 C.ar    1  UNL1        0.0986
     16 N          63.3507   82.9533   12.0446 N.ar    1  UNL1       -0.2423
     17 C          62.5883   84.2011   12.3788 C.ar    1  UNL1        0.0986
     18 C          62.3738   85.2524   11.3305 C.ar    1  UNL1        0.0164
     19 O          64.1257   91.8262   12.5660 O.3     1  UNL1       -0.4690
     20 C          64.9827   91.3045   13.6812 C.3     1  UNL1        0.2508
     21 C          62.9816   85.7630   17.2220 C.ar    1  UNL1        0.0001
     22 C          63.7240   85.3206   15.9960 C.ar    1  UNL1        0.0015
     23 C          64.2727   86.3404   15.0427 C.ar    1  UNL1        0.0191
     24 C          64.0790   87.8026   15.3153 C.ar    1  UNL1        0.0810
     25 N          64.6277   88.8225   14.3619 N.ar    1  UNL1       -0.2460
     26 C          64.4340   90.2847   14.6345 C.ar    1  UNL1        0.1026
     27 C          63.6915   90.7271   15.8605 C.ar    1  UNL1        0.0184
     28 C          63.1428   89.7073   16.8139 C.ar    1  UNL1        0.0028
     29 C          63.3365   88.2450   16.5412 C.ar    1  UNL1        0.0177
     30 C          62.7878   87.2252   17.4946 C.ar    1  UNL1        0.0015
@<TRIPOS>BOND
     1    21    22   ar
     2    22    23   ar
     3    23    24   ar
     4    24    25   ar
     5    25    26   ar
     6    26    20    1
     7    20    19    1
     8    19     1    1
     9     1     2   ar
    10     2     3   ar
    11     3     4   ar
    12     4     7    1
    13     7     8    2
    14     8     9    1
    15     9    10    2
    16    10    11    1
    17    11    12    1
    18    12    13    1
    19    13    14   ar
    20    14    15   ar
    21    15    16   ar
    22    16    17   ar
    23    17    18   ar
    24     4     5   ar
    25     5     6   ar
    26    26    27   ar
    27    27    28   ar
    28    28    29   ar
    29    29    30   ar
    30    30    21   ar
    31    29    24   ar
    32     6     1   ar
    33    11     7    1
    34    18    13   ar
@<TRIPOS>MOLECULE
*****
 30 34 0 0 0
SMALL
GASTEIGER

@<TRIPOS>ATOM
      1 C          64.5117   90.3803   13.9180 C.ar    1  UNL1        0.1391
      2 C          64.2954   88.8969   13.9689 C.ar    1  UNL1        0.0370
      3 C          63.4492   88.2262   12.9278 C.ar    1  UNL1        0.0044
      4 C          62.8193   89.0388   11.8357 C.ar    1  UNL1        0.0159
      5 C          63.0355   90.5223   11.7847 C.ar    1  UNL1        0.0044
      6 C          63.8818   91.1931   12.8258 C.ar    1  UNL1        0.0370
      7 C          61.9730   88.3681   10.7946 C.2     1  UNL1        0.0861
      8 N          61.4339   89.0085    9.5499 N.2     1  UNL1       -0.1523
      9 N          60.6450   87.9753    8.8014 N.2     1  UNL1       -0.1510
     10 C          60.6965   86.6964    9.5834 C.2     1  UNL1        0.1016
     11 C          61.5173   86.9391   10.8153 C.3     1  UNL1        0.0895
     12 C          61.8278   85.9300   11.8808 C.3     1  UNL1        0.0385
     13 C          62.7840   84.8098   11.5971 C.ar    1  UNL1       -0.0183
     14 C          63.4010   84.0451   12.7305 C.ar    1  UNL1        0.0164
     15 C          64.3572   82.9249   12.4467 C.ar    1  UNL1        0.0986
     16 N          64.6965   82.5692   11.0296 N.ar    1  UNL1       -0.2423
     17 C          64.0796   83.3338    9.8961 C.ar    1  UNL1        0.0986
     18 C          63.1233   84.4541   10.1798 C.ar    1  UNL1        0.0164
     19 O          65.3580   91.0511   14.9591 O.3     1  UNL1       -0.4690
     20 C          66.6704   91.6679   14.5755 C.3     1  UNL1        0.2508
     21 C          67.8223   94.3504    8.3523 C.ar    1  UNL1        0.0001
     22 C          68.4306   92.9808    8.4169 C.ar    1  UNL1        0.0015
     23 C          68.3219   92.1704    9.6745 C.ar    1  UNL1        0.0191
     24 C          67.6049   92.7296   10.8674 C.ar    1  UNL1        0.0810
     25 N          67.4962   91.9192   12.1250 N.ar    1  UNL1       -0.2460
     26 C          66.7791   92.4783   13.3179 C.ar    1  UNL1        0.1026
     27 C          66.1707   93.8479   13.2533 C.ar    1  UNL1        0.0184
     28 C          66.2794   94.6583   11.9958 C.ar    1  UNL1        0.0028
     29 C          66.9965   94.0991   10.8028 C.ar    1  UNL1        0.0177
     30 C          67.1052   94.9095    9.5452 C.ar    1  UNL1        0.0015
@<TRIPOS>BOND
     1    21    22   ar
     2    22    23   ar
     3    23    24   ar
     4    24    25   ar
     5    25    26   ar
     6    26    20    1
     7    20    19    1
     8    19     1    1
     9     1     2   ar
    10     2     3   ar
    11     3     4   ar
    12     4     7    1
    13     7     8    2
    14     8     9    1
    15     9    10    2
    16    10    11    1
    17    11    12    1
    18    12    13    1
    19    13    14   ar
    20    14    15   ar
    21    15    16   ar
    22    16    17   ar
    23    17    18   ar
    24     4     5   ar
    25     5     6   ar
    26    26    27   ar
    27    27    28   ar
    28    28    29   ar
    29    29    30   ar
    30    30    21   ar
    31    29    24   ar
    32     6     1   ar
    33    11     7    1
    34    18    13   ar
@<TRIPOS>MOLECULE
*****
 30 34 0 0 0
SMALL
GASTEIGER

@<TRIPOS>ATOM
      1 C          62.8594   89.9117   13.0539 C.ar    1  UNL1        0.1391
      2 C          63.5547   89.3707   14.2679 C.ar    1  UNL1        0.0370
      3 C          64.8027   90.0312   14.7742 C.ar    1  UNL1        0.0044
      4 C          65.3554   91.2326   14.0664 C.ar    1  UNL1        0.0159
      5 C          64.6602   91.7737   12.8523 C.ar    1  UNL1        0.0044
      6 C          63.4122   91.1132   12.3460 C.ar    1  UNL1        0.0370
      7 C          66.6034   91.8931   14.5727 C.2     1  UNL1        0.0861
      8 N          66.7836   92.5196   15.9236 N.2     1  UNL1       -0.1523
      9 N          68.1819   93.0567   16.0027 N.2     1  UNL1       -0.1510
     10 C          68.8659   92.7623   14.7007 C.2     1  UNL1        0.1016
     11 C          67.8904   92.0431   13.8169 C.3     1  UNL1        0.0895
     12 C          68.1553   91.5589   12.4221 C.3     1  UNL1        0.0385
     13 C          67.8675   92.4510   11.2511 C.ar    1  UNL1       -0.0183
     14 C          68.5185   92.1835    9.9265 C.ar    1  UNL1        0.0164
     15 C          68.2307   93.0757    8.7555 C.ar    1  UNL1        0.0986
     16 N          67.2919   94.2354    8.9092 N.ar    1  UNL1       -0.2423
     17 C          66.6409   94.5031   10.2337 C.ar    1  UNL1        0.0986
     18 C          66.9287   93.6109   11.4048 C.ar    1  UNL1        0.0164
     19 O          61.6115   89.2512   12.5477 O.3     1  UNL1       -0.4690
     20 C          61.0537   89.6291   11.2074 C.3     1  UNL1        0.2508
     21 C          61.6310   84.5291    6.6350 C.ar    1  UNL1        0.0001
     22 C          62.8964   84.6163    7.4356 C.ar    1  UNL1        0.0015
     23 C          63.0341   85.6538    8.5102 C.ar    1  UNL1        0.0191
     24 C          61.9062   86.6040    8.7842 C.ar    1  UNL1        0.0810
     25 N          62.0439   87.6414    9.8588 N.ar    1  UNL1       -0.2460
     26 C          60.9161   88.5916   10.1328 C.ar    1  UNL1        0.1026
     27 C          59.6505   88.5044    9.3322 C.ar    1  UNL1        0.0184
     28 C          59.5129   87.4669    8.2576 C.ar    1  UNL1        0.0028
     29 C          60.6408   86.5167    7.9836 C.ar    1  UNL1        0.0177
     30 C          60.5032   85.4793    6.9090 C.ar    1  UNL1        0.0015
@<TRIPOS>BOND
     1    21    22   ar
     2    22    23   ar
     3    23    24   ar
     4    24    25   ar
     5    25    26   ar
     6    26    20    1
     7    20    19    1
     8    19     1    1
     9     1     2   ar
    10     2     3   ar
    11     3     4   ar
    12     4     7    1
    13     7     8    2
    14     8     9    1
    15     9    10    2
    16    10    11    1
    17    11    12    1
    18    12    13    1
    19    13    14   ar
    20    14    15   ar
    21    15    16   ar
    22    16    17   ar
    23    17    18   ar
    24     4     5   ar
    25     5     6   ar
    26    26    27   ar
    27    27    28   ar
    28    28    29   ar
    29    29    30   ar
    30    30    21   ar
    31    29    24   ar
    32     6     1   ar
    33    11     7    1
    34    18    13   ar
