@<TRIPOS>MOLECULE
*****
 45 48 0 0 0
SMALL
GASTEIGER

@<TRIPOS>ATOM
      1 C          63.8653   90.0076   13.4815 C.ar    1  UNL1        0.0703
      2 C          64.8137   91.1693   13.5154 C.ar    1  UNL1        0.0465
      3 C          65.5674   91.4858   14.7731 C.3     1  UNL1        0.0503
      4 N          65.0084   92.0145   12.2915 N.ar    1  UNL1       -0.2806
      5 C          64.2547   91.6980   11.0338 C.ar    1  UNL1        0.3338
      6 O          64.3029   92.1801   10.1772 O.2     1  UNL1       -0.2462
      7 N          63.3063   90.5363   11.0000 N.ar    1  UNL1       -0.2470
      8 C          63.1117   89.6911   12.2238 C.ar    1  UNL1        0.2654
      9 O          62.1633   88.5294   12.1900 O.2     1  UNL1       -0.2668
     10 C          63.7855   86.8502   15.8845 C.ar    1  UNL1        0.1660
     11 C          63.2813   87.4720   17.1529 C.ar    1  UNL1        0.0392
     12 C          62.9717   88.9390   17.1976 C.ar    1  UNL1        0.0033
     13 C          63.1664   89.7842   15.9738 C.ar    1  UNL1        0.0026
     14 C          63.6706   89.1624   14.7054 C.ar    1  UNL1        0.0362
     15 C          63.9802   87.6954   14.6607 C.ar    1  UNL1        0.1739
     16 F          64.4845   87.0736   13.3922 F       1  UNL1       -0.2010
     17 C          63.1150   84.4282   15.2256 C.3     1  UNL1        0.2526
     18 O          64.0951   85.3832   15.8398 O.3     1  UNL1       -0.4692
     19 C          65.9568   93.1761   12.3254 C.3     1  UNL1        0.1391
     20 C          66.8202   93.4743   11.1356 C.ar    1  UNL1        0.0319
     21 C          67.7947   92.4474   10.6399 C.ar    1  UNL1        0.1379
     22 F          67.9519   91.5508   11.0140 F       1  UNL1       -0.2044
     23 C          68.6581   92.7456    9.4500 C.ar    1  UNL1        0.0294
     24 C          68.5470   94.0707    8.7560 C.ar    1  UNL1        0.0022
     25 C          67.5725   95.0976    9.2518 C.ar    1  UNL1        0.0037
     26 C          66.7091   94.7994   10.4415 C.ar    1  UNL1        0.0714
     27 C          65.7346   95.8264   10.9373 C.3     1  UNL1        0.4184
     28 F          64.7600   96.8533   11.4330 F       1  UNL1       -0.1659
     29 F          64.8989   95.6270    9.7076 F       1  UNL1       -0.1659
     30 F          66.5702   96.0258   12.1669 F       1  UNL1       -0.1659
     31 C          62.5526   90.2198    9.7423 C.3     1  UNL1        0.1337
     32 C          61.1027   89.8420    9.8118 C.3     1  UNL1        0.1000
     33 C          60.6226   88.5846    9.1497 C.ar    1  UNL1       -0.0061
     34 C          61.2521   87.2677    9.4952 C.ar    1  UNL1       -0.0029
     35 C          60.7721   86.0102    8.8331 C.ar    1  UNL1       -0.0003
     36 C          59.6626   86.0697    7.8254 C.ar    1  UNL1       -0.0000
     37 C          59.0331   87.3867    7.4798 C.ar    1  UNL1       -0.0003
     38 C          59.5131   88.6441    8.1419 C.ar    1  UNL1       -0.0029
     39 N          60.1326   90.7218   10.5434 N.3     1  UNL1       -0.2932
     40 H          59.3095   90.8115    9.9478 H       1  UNL1        0.1236
     41 C          59.6413   90.3269   11.9045 C.3     1  UNL1        0.0748
     42 C          58.9878   88.9921   12.1078 C.3     1  UNL1        0.0588
     43 C          58.1275   88.7541   13.3134 C.2     1  UNL1        0.0517
     44 O          58.7379   88.7608   14.6835 O.co2   1  UNL1       -0.5491
     45 O          56.6568   88.5094   13.1487 O.co2   1  UNL1       -0.5491
@<TRIPOS>UNITY_ATOM_ATTR
44 1
charge -1
@<TRIPOS>BOND
     1    17    18    1
     2    18    10    1
     3    10    11   ar
     4    11    12   ar
     5    12    13   ar
     6    13    14   ar
     7    14     1    1
     8     1     2   ar
     9     2     3    1
    10     2     4   ar
    11     4    19    1
    12    19    20    1
    13    20    21   ar
    14    21    22    1
    15    21    23   ar
    16    23    24   ar
    17    24    25   ar
    18    25    26   ar
    19    26    27    1
    20    27    28    1
    21    27    29    1
    22    27    30    1
    23     4     5   ar
    24     5     6    2
    25     5     7   ar
    26     7    31    1
    27    32    31    1
    28    32    39    1
    29    39    41    1
    30    41    42    1
    31    42    43    1
    32    43    44   ar
    33    43    45   ar
    34    32    33    1
    35    33    34   ar
    36    34    35   ar
    37    35    36   ar
    38    36    37   ar
    39    37    38   ar
    40     7     8   ar
    41     8     9    2
    42    14    15   ar
    43    15    16    1
    44    15    10   ar
    45     8     1   ar
    46    26    20   ar
    47    38    33   ar
    48    39    40    1
@<TRIPOS>MOLECULE
*****
 45 48 0 0 0
SMALL
GASTEIGER

@<TRIPOS>ATOM
      1 C          62.1403   86.9982   10.6721 C.ar    1  UNL1        0.0703
      2 C          62.1709   88.4584   11.0141 C.ar    1  UNL1        0.0465
      3 C          61.5214   89.4562   10.1016 C.3     1  UNL1        0.0503
      4 N          62.8511   88.9208   12.2685 N.ar    1  UNL1       -0.2806
      5 C          63.5006   87.9230   13.1810 C.ar    1  UNL1        0.3338
      6 O          63.9720   88.1106   14.0242 O.2     1  UNL1       -0.2462
      7 N          63.4699   86.4628   12.8389 N.ar    1  UNL1       -0.2470
      8 C          62.7898   86.0004   11.5845 C.ar    1  UNL1        0.2654
      9 O          62.7591   84.5402   11.2425 O.2     1  UNL1       -0.2668
     10 C          61.5478   85.2929    7.1378 C.ar    1  UNL1        0.1660
     11 C          60.1000   85.6110    6.9088 C.ar    1  UNL1        0.0392
     12 C          59.3322   86.3915    7.9341 C.ar    1  UNL1        0.0033
     13 C          60.0123   86.8539    9.1885 C.ar    1  UNL1        0.0026
     14 C          61.4601   86.5358    9.4176 C.ar    1  UNL1        0.0362
     15 C          62.2279   85.7553    8.3922 C.ar    1  UNL1        0.1739
     16 F          63.6758   85.4372    8.6214 F       1  UNL1       -0.2010
     17 C          61.6620   84.1284    4.8181 C.3     1  UNL1        0.2526
     18 O          62.3156   84.5124    6.1125 O.3     1  UNL1       -0.4692
     19 C          62.8817   90.3809   12.6105 C.3     1  UNL1        0.1391
     20 C          64.0994   91.1990   12.2978 C.ar    1  UNL1        0.0319
     21 C          64.3364   91.6867   10.8992 C.ar    1  UNL1        0.1379
     22 F          63.7650   91.5318   10.1131 F       1  UNL1       -0.2044
     23 C          65.5542   92.5048   10.5865 C.ar    1  UNL1        0.0294
     24 C          66.5349   92.8353   11.6723 C.ar    1  UNL1        0.0022
     25 C          66.2978   92.3476   13.0709 C.ar    1  UNL1        0.0037
     26 C          65.0801   91.5295   13.3836 C.ar    1  UNL1        0.0714
     27 C          64.8431   91.0419   14.7822 C.3     1  UNL1        0.4184
     28 F          64.6060   90.5542   16.1808 F       1  UNL1       -0.1659
     29 F          66.1781   90.3580   14.7700 F       1  UNL1       -0.1659
     30 F          63.5081   91.7257   14.7944 F       1  UNL1       -0.1659
     31 C          64.1194   85.4650   13.7514 C.3     1  UNL1        0.1337
     32 C          63.2733   84.5586   14.5955 C.3     1  UNL1        0.1000
     33 C          62.9890   83.1582   14.1396 C.ar    1  UNL1       -0.0061
     34 C          61.7003   82.4922   14.5213 C.ar    1  UNL1       -0.0029
     35 C          61.4159   81.0918   14.0654 C.ar    1  UNL1       -0.0003
     36 C          62.4203   80.3573   13.2277 C.ar    1  UNL1       -0.0000
     37 C          63.7091   81.0232   12.8460 C.ar    1  UNL1       -0.0003
     38 C          63.9934   82.4237   13.3019 C.ar    1  UNL1       -0.0029
     39 N          62.7115   85.0528   15.8957 N.3     1  UNL1       -0.2932
     40 H          62.3667   84.2343   16.3974 H       1  UNL1        0.1236
     41 C          63.5855   85.8099   16.8509 C.3     1  UNL1        0.0748
     42 C          63.2606   87.2325   17.1983 C.3     1  UNL1        0.0588
     43 C          61.9530   87.8294   16.7693 C.2     1  UNL1        0.0517
     44 O          60.7009   87.0046   16.8156 O.co2   1  UNL1       -0.5491
     45 O          61.8974   89.2510   16.2941 O.co2   1  UNL1       -0.5491
@<TRIPOS>UNITY_ATOM_ATTR
44 1
charge -1
@<TRIPOS>BOND
     1    17    18    1
     2    18    10    1
     3    10    11   ar
     4    11    12   ar
     5    12    13   ar
     6    13    14   ar
     7    14     1    1
     8     1     2   ar
     9     2     3    1
    10     2     4   ar
    11     4    19    1
    12    19    20    1
    13    20    21   ar
    14    21    22    1
    15    21    23   ar
    16    23    24   ar
    17    24    25   ar
    18    25    26   ar
    19    26    27    1
    20    27    28    1
    21    27    29    1
    22    27    30    1
    23     4     5   ar
    24     5     6    2
    25     5     7   ar
    26     7    31    1
    27    32    31    1
    28    32    39    1
    29    39    41    1
    30    41    42    1
    31    42    43    1
    32    43    44   ar
    33    43    45   ar
    34    32    33    1
    35    33    34   ar
    36    34    35   ar
    37    35    36   ar
    38    36    37   ar
    39    37    38   ar
    40     7     8   ar
    41     8     9    2
    42    14    15   ar
    43    15    16    1
    44    15    10   ar
    45     8     1   ar
    46    26    20   ar
    47    38    33   ar
    48    39    40    1
@<TRIPOS>MOLECULE
*****
 45 48 0 0 0
SMALL
GASTEIGER

@<TRIPOS>ATOM
      1 C          61.3541   87.9349   10.4779 C.ar    1  UNL1        0.0703
      2 C          61.5361   89.1524   11.3349 C.ar    1  UNL1        0.0465
      3 C          60.8102   90.4214   10.9992 C.3     1  UNL1        0.0503
      4 N          62.4441   89.1009   12.5279 N.ar    1  UNL1       -0.2806
      5 C          63.1700   87.8319   12.8636 C.ar    1  UNL1        0.3338
      6 O          63.7863   87.6835   13.6163 O.2     1  UNL1       -0.2462
      7 N          62.9879   86.6144   12.0065 N.ar    1  UNL1       -0.2470
      8 C          62.0800   86.6660   10.8136 C.ar    1  UNL1        0.2654
      9 O          61.8979   85.4485    9.9565 O.2     1  UNL1       -0.2668
     10 C          59.6478   89.1704    7.1145 C.ar    1  UNL1        0.1660
     11 C          58.6303   88.0895    6.8991 C.ar    1  UNL1        0.0392
     12 C          58.5208   86.9571    7.8767 C.ar    1  UNL1        0.0033
     13 C          59.4287   86.9055    9.0696 C.ar    1  UNL1        0.0026
     14 C          60.4461   87.9865    9.2849 C.ar    1  UNL1        0.0362
     15 C          60.5557   89.1189    8.3074 C.ar    1  UNL1        0.1739
     16 F          61.5732   90.1998    8.5228 F       1  UNL1       -0.2010
     17 C          58.5205   90.8748    5.5100 C.3     1  UNL1        0.2526
     18 O          59.7573   90.3029    6.1370 O.3     1  UNL1       -0.4692
     19 C          62.6261   90.3183   13.3850 C.3     1  UNL1        0.1391
     20 C          63.9731   90.9709   13.4845 C.ar    1  UNL1        0.0319
     21 C          64.6157   91.5549   12.2614 C.ar    1  UNL1        0.1379
     22 F          64.2490   91.5674   11.3483 F       1  UNL1       -0.2044
     23 C          65.9627   92.2074   12.3610 C.ar    1  UNL1        0.0294
     24 C          66.6670   92.2760   13.6835 C.ar    1  UNL1        0.0022
     25 C          66.0243   91.6920   14.9066 C.ar    1  UNL1        0.0037
     26 C          64.6774   91.0394   14.8071 C.ar    1  UNL1        0.0714
     27 C          64.0347   90.4554   16.0302 C.3     1  UNL1        0.4184
     28 F          63.3921   89.8714   17.2533 F       1  UNL1       -0.1659
     29 F          63.6563   91.8325   16.4889 F       1  UNL1       -0.1659
     30 F          64.4131   89.0783   15.5714 F       1  UNL1       -0.1659
     31 C          63.7138   85.3454   12.3423 C.3     1  UNL1        0.1337
     32 C          63.0721   84.3294   13.2399 C.3     1  UNL1        0.1000
     33 C          62.9484   82.9035   12.7908 C.ar    1  UNL1       -0.0061
     34 C          63.3165   82.5248   11.3869 C.ar    1  UNL1       -0.0029
     35 C          63.1928   81.0989   10.9378 C.ar    1  UNL1       -0.0003
     36 C          62.7010   80.0519   11.8926 C.ar    1  UNL1       -0.0000
     37 C          62.3329   80.4306   13.2966 C.ar    1  UNL1       -0.0003
     38 C          62.4566   81.8564   13.7457 C.ar    1  UNL1       -0.0029
     39 N          62.5542   84.7391   14.5867 N.3     1  UNL1       -0.2932
     40 H          61.8008   84.0928   14.8216 H       1  UNL1        0.1236
     41 C          63.4789   84.7735   15.7672 C.3     1  UNL1        0.0748
     42 C          63.5802   86.0138   16.6046 C.3     1  UNL1        0.0588
     43 C          62.4351   86.4207   17.4839 C.2     1  UNL1        0.0517
     44 O          61.0261   86.3027   16.9830 O.co2   1  UNL1       -0.5491
     45 O          62.6989   86.9457   18.8640 O.co2   1  UNL1       -0.5491
@<TRIPOS>UNITY_ATOM_ATTR
44 1
charge -1
@<TRIPOS>BOND
     1    17    18    1
     2    18    10    1
     3    10    11   ar
     4    11    12   ar
     5    12    13   ar
     6    13    14   ar
     7    14     1    1
     8     1     2   ar
     9     2     3    1
    10     2     4   ar
    11     4    19    1
    12    19    20    1
    13    20    21   ar
    14    21    22    1
    15    21    23   ar
    16    23    24   ar
    17    24    25   ar
    18    25    26   ar
    19    26    27    1
    20    27    28    1
    21    27    29    1
    22    27    30    1
    23     4     5   ar
    24     5     6    2
    25     5     7   ar
    26     7    31    1
    27    32    31    1
    28    32    39    1
    29    39    41    1
    30    41    42    1
    31    42    43    1
    32    43    44   ar
    33    43    45   ar
    34    32    33    1
    35    33    34   ar
    36    34    35   ar
    37    35    36   ar
    38    36    37   ar
    39    37    38   ar
    40     7     8   ar
    41     8     9    2
    42    14    15   ar
    43    15    16    1
    44    15    10   ar
    45     8     1   ar
    46    26    20   ar
    47    38    33   ar
    48    39    40    1
@<TRIPOS>MOLECULE
*****
 45 48 0 0 0
SMALL
GASTEIGER

@<TRIPOS>ATOM
      1 C          63.2645   88.1280   13.5694 C.ar    1  UNL1        0.0703
      2 C          63.9737   86.8194   13.7551 C.ar    1  UNL1        0.0465
      3 C          65.0803   86.7022   14.7609 C.3     1  UNL1        0.0503
      4 N          63.5763   85.6280   12.9349 N.ar    1  UNL1       -0.2806
      5 C          62.4697   85.7452   11.9291 C.ar    1  UNL1        0.3338
      6 O          62.1270   85.0352   11.3400 O.2     1  UNL1       -0.2462
      7 N          61.7604   87.0539   11.7435 N.ar    1  UNL1       -0.2470
      8 C          62.1579   88.2453   12.5636 C.ar    1  UNL1        0.2654
      9 O          61.4486   89.5540   12.3780 O.2     1  UNL1       -0.2668
     10 C          64.7936   91.6512   14.5690 C.ar    1  UNL1        0.1660
     11 C          64.4567   91.7023   16.0297 C.ar    1  UNL1        0.0392
     12 C          63.7224   90.5620   16.6704 C.ar    1  UNL1        0.0033
     13 C          63.3250   89.3706   15.8503 C.ar    1  UNL1        0.0026
     14 C          63.6619   89.3195   14.3896 C.ar    1  UNL1        0.0362
     15 C          64.3962   90.4598   13.7489 C.ar    1  UNL1        0.1739
     16 F          64.7330   90.4087   12.2881 F       1  UNL1       -0.2010
     17 C          66.8675   93.2120   14.4560 C.3     1  UNL1        0.2526
     18 O          65.5278   92.7916   13.9283 O.3     1  UNL1       -0.4692
     19 C          64.2855   84.3194   13.1206 C.3     1  UNL1        0.1391
     20 C          63.4975   83.0472   13.2228 C.ar    1  UNL1        0.0319
     21 C          63.5947   82.0155   12.1383 C.ar    1  UNL1        0.1379
     22 F          64.1391   82.0658   11.3200 F       1  UNL1       -0.2044
     23 C          62.8066   80.7433   12.2405 C.ar    1  UNL1        0.0294
     24 C          61.9214   80.5027   13.4274 C.ar    1  UNL1        0.0022
     25 C          61.8243   81.5343   14.5119 C.ar    1  UNL1        0.0037
     26 C          62.6123   82.8065   14.4097 C.ar    1  UNL1        0.0714
     27 C          62.5152   83.8382   15.4943 C.3     1  UNL1        0.4184
     28 F          62.4180   84.8698   16.5788 F       1  UNL1       -0.1659
     29 F          61.2328   84.3414   14.9007 F       1  UNL1       -0.1659
     30 F          63.7975   83.3349   16.0878 F       1  UNL1       -0.1659
     31 C          60.6538   87.1711   10.7377 C.3     1  UNL1        0.1337
     32 C          60.9694   87.5132    9.3118 C.3     1  UNL1        0.1000
     33 C          61.3543   86.4300    8.3482 C.ar    1  UNL1       -0.0061
     34 C          60.3306   85.8619    7.4104 C.ar    1  UNL1       -0.0029
     35 C          60.7155   84.7787    6.4468 C.ar    1  UNL1       -0.0003
     36 C          62.1239   84.2635    6.4210 C.ar    1  UNL1       -0.0000
     37 C          63.1477   84.8315    7.3588 C.ar    1  UNL1       -0.0003
     38 C          62.7628   85.9148    8.3224 C.ar    1  UNL1       -0.0029
     39 N          60.9003   88.9385    8.8494 N.3     1  UNL1       -0.2932
     40 H          61.6457   89.0623    8.1643 H       1  UNL1        0.1236
     41 C          59.6433   89.4630    8.2211 C.3     1  UNL1        0.0748
     42 C          59.3531   89.1818    6.7765 C.3     1  UNL1        0.0588
     43 C          59.2437   90.3146    5.7992 C.2     1  UNL1        0.0517
     44 O          60.4812   90.8912    5.1779 O.co2   1  UNL1       -0.5491
     45 O          57.8969   90.8706    5.4433 O.co2   1  UNL1       -0.5491
@<TRIPOS>UNITY_ATOM_ATTR
44 1
charge -1
@<TRIPOS>BOND
     1    17    18    1
     2    18    10    1
     3    10    11   ar
     4    11    12   ar
     5    12    13   ar
     6    13    14   ar
     7    14     1    1
     8     1     2   ar
     9     2     3    1
    10     2     4   ar
    11     4    19    1
    12    19    20    1
    13    20    21   ar
    14    21    22    1
    15    21    23   ar
    16    23    24   ar
    17    24    25   ar
    18    25    26   ar
    19    26    27    1
    20    27    28    1
    21    27    29    1
    22    27    30    1
    23     4     5   ar
    24     5     6    2
    25     5     7   ar
    26     7    31    1
    27    32    31    1
    28    32    39    1
    29    39    41    1
    30    41    42    1
    31    42    43    1
    32    43    44   ar
    33    43    45   ar
    34    32    33    1
    35    33    34   ar
    36    34    35   ar
    37    35    36   ar
    38    36    37   ar
    39    37    38   ar
    40     7     8   ar
    41     8     9    2
    42    14    15   ar
    43    15    16    1
    44    15    10   ar
    45     8     1   ar
    46    26    20   ar
    47    38    33   ar
    48    39    40    1
@<TRIPOS>MOLECULE
*****
 45 48 0 0 0
SMALL
GASTEIGER

@<TRIPOS>ATOM
      1 C          63.2540   88.2457   13.6030 C.ar    1  UNL1        0.0703
      2 C          63.9122   86.9200   13.8464 C.ar    1  UNL1        0.0465
      3 C          65.0071   86.8019   14.8648 C.3     1  UNL1        0.0503
      4 N          63.4756   85.7122   13.0712 N.ar    1  UNL1       -0.2806
      5 C          62.3807   85.8303   12.0527 C.ar    1  UNL1        0.3338
      6 O          62.0154   85.1105   11.4897 O.2     1  UNL1       -0.2462
      7 N          61.7224   87.1560   11.8094 N.ar    1  UNL1       -0.2470
      8 C          62.1591   88.3637   12.5846 C.ar    1  UNL1        0.2654
      9 O          61.5009   89.6895   12.3412 O.2     1  UNL1       -0.2668
     10 C          64.8883   91.7572   14.4681 C.ar    1  UNL1        0.1660
     11 C          64.5639   91.8688   15.9283 C.ar    1  UNL1        0.0392
     12 C          63.8030   90.7727   16.6135 C.ar    1  UNL1        0.0033
     13 C          63.3663   89.5650   15.8384 C.ar    1  UNL1        0.0026
     14 C          63.6906   89.4534   14.3782 C.ar    1  UNL1        0.0362
     15 C          64.4516   90.5495   13.6930 C.ar    1  UNL1        0.1739
     16 F          64.7759   90.4379   12.2327 F       1  UNL1       -0.2010
     17 C          66.8267   93.4870   14.4625 C.3     1  UNL1        0.2526
     18 O          65.6492   92.8533   13.7829 O.3     1  UNL1       -0.4692
     19 C          64.1338   84.3866   13.3146 C.3     1  UNL1        0.1391
     20 C          63.3052   83.1377   13.3747 C.ar    1  UNL1        0.0319
     21 C          62.4415   82.8675   14.5710 C.ar    1  UNL1        0.1379
     22 F          62.3404   83.4347   15.3688 F       1  UNL1       -0.2044
     23 C          61.6129   81.6185   14.6311 C.ar    1  UNL1        0.0294
     24 C          61.6481   80.6398   13.4950 C.ar    1  UNL1        0.0022
     25 C          62.5118   80.9099   12.2987 C.ar    1  UNL1        0.0037
     26 C          63.3404   82.1588   12.2386 C.ar    1  UNL1        0.0714
     27 C          64.2041   82.4289   11.0424 C.3     1  UNL1        0.4184
     28 F          65.0678   82.6991    9.8461 F       1  UNL1       -0.1659
     29 F          62.9810   82.7249   10.2260 F       1  UNL1       -0.1659
     30 F          65.4272   82.1330   11.8587 F       1  UNL1       -0.1659
     31 C          60.6275   87.2741   10.7910 C.3     1  UNL1        0.1337
     32 C          60.9616   87.5966    9.3647 C.3     1  UNL1        0.1000
     33 C          61.3509   86.4994    8.4189 C.ar    1  UNL1       -0.0061
     34 C          60.3398   85.9394    7.4629 C.ar    1  UNL1       -0.0029
     35 C          60.7292   84.8421    6.5171 C.ar    1  UNL1       -0.0003
     36 C          62.1296   84.3048    6.5275 C.ar    1  UNL1       -0.0000
     37 C          63.1407   84.8648    7.4836 C.ar    1  UNL1       -0.0003
     38 C          62.7514   85.9621    8.4293 C.ar    1  UNL1       -0.0029
     39 N          60.9062   89.0165    8.8840 N.3     1  UNL1       -0.2932
     40 H          61.6595   89.1272    8.2052 H       1  UNL1        0.1236
     41 C          59.6591   89.5410    8.2363 C.3     1  UNL1        0.0748
     42 C          59.3610   89.2086    6.8044 C.3     1  UNL1        0.0588
     43 C          59.2255   90.3071    5.7919 C.2     1  UNL1        0.0517
     44 O          57.8655   90.8134    5.4121 O.co2   1  UNL1       -0.5491
     45 O          60.4498   90.8993    5.1593 O.co2   1  UNL1       -0.5491
@<TRIPOS>UNITY_ATOM_ATTR
44 1
charge -1
@<TRIPOS>BOND
     1    17    18    1
     2    18    10    1
     3    10    11   ar
     4    11    12   ar
     5    12    13   ar
     6    13    14   ar
     7    14     1    1
     8     1     2   ar
     9     2     3    1
    10     2     4   ar
    11     4    19    1
    12    19    20    1
    13    20    21   ar
    14    21    22    1
    15    21    23   ar
    16    23    24   ar
    17    24    25   ar
    18    25    26   ar
    19    26    27    1
    20    27    28    1
    21    27    29    1
    22    27    30    1
    23     4     5   ar
    24     5     6    2
    25     5     7   ar
    26     7    31    1
    27    32    31    1
    28    32    39    1
    29    39    41    1
    30    41    42    1
    31    42    43    1
    32    43    44   ar
    33    43    45   ar
    34    32    33    1
    35    33    34   ar
    36    34    35   ar
    37    35    36   ar
    38    36    37   ar
    39    37    38   ar
    40     7     8   ar
    41     8     9    2
    42    14    15   ar
    43    15    16    1
    44    15    10   ar
    45     8     1   ar
    46    26    20   ar
    47    38    33   ar
    48    39    40    1
@<TRIPOS>MOLECULE
*****
 45 48 0 0 0
SMALL
GASTEIGER

@<TRIPOS>ATOM
      1 C          62.9830   87.3422   13.0187 C.ar    1  UNL1        0.0703
      2 C          63.6036   88.6512   13.4076 C.ar    1  UNL1        0.0465
      3 C          64.7458   88.6804   14.3795 C.3     1  UNL1        0.0503
      4 N          63.0821   89.9311   12.8244 N.ar    1  UNL1       -0.2806
      5 C          61.9400   89.9019   11.8525 C.ar    1  UNL1        0.3338
      6 O          61.5190   90.6735   11.4099 O.2     1  UNL1       -0.2462
      7 N          61.3194   88.5928   11.4637 N.ar    1  UNL1       -0.2470
      8 C          61.8409   87.3130   12.0468 C.ar    1  UNL1        0.2654
      9 O          61.2203   86.0039   11.6580 O.2     1  UNL1       -0.2668
     10 C          64.2733   83.5994   13.2965 C.ar    1  UNL1        0.1660
     11 C          64.5475   83.5026   14.7680 C.ar    1  UNL1        0.0392
     12 C          64.3002   84.6856   15.6564 C.ar    1  UNL1        0.0033
     13 C          63.7787   85.9654   15.0734 C.ar    1  UNL1        0.0026
     14 C          63.5045   86.0623   13.6019 C.ar    1  UNL1        0.0362
     15 C          63.7518   84.8793   12.7134 C.ar    1  UNL1        0.1739
     16 F          63.4776   84.9762   11.2418 F       1  UNL1       -0.2010
     17 C          63.3647   81.6940   11.7820 C.3     1  UNL1        0.2526
     18 O          64.5206   82.4164   12.4080 O.3     1  UNL1       -0.4692
     19 C          63.7028   91.2401   13.2133 C.3     1  UNL1        0.1391
     20 C          64.8454   91.7948   12.4153 C.ar    1  UNL1        0.0319
     21 C          64.7202   91.9408   10.9277 C.ar    1  UNL1        0.1379
     22 F          63.9417   91.7071   10.3730 F       1  UNL1       -0.2044
     23 C          65.8629   92.4955   10.1298 C.ar    1  UNL1        0.0294
     24 C          67.1307   92.9041   10.8194 C.ar    1  UNL1        0.0022
     25 C          67.2559   92.7581   12.3071 C.ar    1  UNL1        0.0037
     26 C          66.1133   92.2034   13.1050 C.ar    1  UNL1        0.0714
     27 C          66.2384   92.0574   14.5926 C.3     1  UNL1        0.4184
     28 F          66.3636   91.9114   16.0802 F       1  UNL1       -0.1659
     29 F          66.7124   90.6455   14.4142 F       1  UNL1       -0.1659
     30 F          65.7644   93.4693   14.7711 F       1  UNL1       -0.1659
     31 C          60.1773   88.5636   10.4917 C.3     1  UNL1        0.1337
     32 C          60.4474   88.4604    9.0199 C.3     1  UNL1        0.1000
     33 C          61.0145   87.1948    8.4483 C.ar    1  UNL1       -0.0061
     34 C          60.1698   86.3272    7.5631 C.ar    1  UNL1       -0.0029
     35 C          60.7369   85.0616    6.9916 C.ar    1  UNL1       -0.0003
     36 C          62.1487   84.6637    7.3052 C.ar    1  UNL1       -0.0000
     37 C          62.9935   85.5314    8.1904 C.ar    1  UNL1       -0.0003
     38 C          62.4264   86.7969    8.7619 C.ar    1  UNL1       -0.0029
     39 N          60.1505   89.6229    8.1195 N.3     1  UNL1       -0.2932
     40 H          61.0358   89.9013    7.6964 H       1  UNL1        0.1236
     41 C          59.1640   89.4715    6.9998 C.3     1  UNL1        0.0748
     42 C          59.3965   90.1744    5.6953 C.3     1  UNL1        0.0588
     43 C          58.4916   91.2946    5.2752 C.2     1  UNL1        0.0517
     44 O          59.0745   92.6037    4.8322 O.co2   1  UNL1       -0.5491
     45 O          57.0037   91.1055    5.2981 O.co2   1  UNL1       -0.5491
@<TRIPOS>UNITY_ATOM_ATTR
44 1
charge -1
@<TRIPOS>BOND
     1    17    18    1
     2    18    10    1
     3    10    11   ar
     4    11    12   ar
     5    12    13   ar
     6    13    14   ar
     7    14     1    1
     8     1     2   ar
     9     2     3    1
    10     2     4   ar
    11     4    19    1
    12    19    20    1
    13    20    21   ar
    14    21    22    1
    15    21    23   ar
    16    23    24   ar
    17    24    25   ar
    18    25    26   ar
    19    26    27    1
    20    27    28    1
    21    27    29    1
    22    27    30    1
    23     4     5   ar
    24     5     6    2
    25     5     7   ar
    26     7    31    1
    27    32    31    1
    28    32    39    1
    29    39    41    1
    30    41    42    1
    31    42    43    1
    32    43    44   ar
    33    43    45   ar
    34    32    33    1
    35    33    34   ar
    36    34    35   ar
    37    35    36   ar
    38    36    37   ar
    39    37    38   ar
    40     7     8   ar
    41     8     9    2
    42    14    15   ar
    43    15    16    1
    44    15    10   ar
    45     8     1   ar
    46    26    20   ar
    47    38    33   ar
    48    39    40    1
@<TRIPOS>MOLECULE
*****
 45 48 0 0 0
SMALL
GASTEIGER

@<TRIPOS>ATOM
      1 C          64.0109   89.2568   13.8295 C.ar    1  UNL1        0.0703
      2 C          63.4211   89.6153   12.4978 C.ar    1  UNL1        0.0465
      3 C          63.2132   91.0552   12.1326 C.3     1  UNL1        0.0503
      4 N          63.0392   88.5337   11.5311 N.ar    1  UNL1       -0.2806
      5 C          63.2470   87.0938   11.8962 C.ar    1  UNL1        0.3338
      6 O          63.0352   86.3064   11.3451 O.2     1  UNL1       -0.2462
      7 N          63.8368   86.7354   13.2281 N.ar    1  UNL1       -0.2470
      8 C          64.2187   87.8169   14.1947 C.ar    1  UNL1        0.2654
      9 O          64.8085   87.4585   15.5265 O.2     1  UNL1       -0.2668
     10 C          65.9662   92.2878   15.4849 C.ar    1  UNL1        0.1660
     11 C          65.1567   92.5014   16.7295 C.ar    1  UNL1        0.0392
     12 C          63.9653   91.6335   17.0075 C.ar    1  UNL1        0.0033
     13 C          63.5834   90.5520   16.0409 C.ar    1  UNL1        0.0026
     14 C          64.3928   90.3384   14.7963 C.ar    1  UNL1        0.0362
     15 C          65.5842   91.2063   14.5182 C.ar    1  UNL1        0.1739
     16 F          66.3937   90.9927   13.2735 F       1  UNL1       -0.2010
     17 C          68.5420   92.5934   15.3373 C.3     1  UNL1        0.2526
     18 O          67.1576   93.1558   15.2069 O.3     1  UNL1       -0.4692
     19 C          62.4494   88.8922   10.1993 C.3     1  UNL1        0.1391
     20 C          61.4582   87.9748    9.5467 C.ar    1  UNL1        0.0319
     21 C          61.9364   86.8532    8.6731 C.ar    1  UNL1        0.1379
     22 F          62.8696   86.6260    8.4587 F       1  UNL1       -0.2044
     23 C          60.9451   85.9358    8.0205 C.ar    1  UNL1        0.0294
     24 C          59.4757   86.1401    8.2415 C.ar    1  UNL1        0.0022
     25 C          58.9974   87.2618    9.1151 C.ar    1  UNL1        0.0037
     26 C          59.9886   88.1791    9.7677 C.ar    1  UNL1        0.0714
     27 C          59.5104   89.3008   10.6413 C.3     1  UNL1        0.4184
     28 F          59.0321   90.4224   11.5149 F       1  UNL1       -0.1659
     29 F          59.3680   88.3459   11.7893 F       1  UNL1       -0.1659
     30 F          59.6527   90.2556    9.4932 F       1  UNL1       -0.1659
     31 C          64.0447   85.2954   13.5932 C.3     1  UNL1        0.1337
     32 C          62.8667   84.4285   13.9260 C.3     1  UNL1        0.1000
     33 C          62.7498   83.0590   13.3253 C.ar    1  UNL1       -0.0061
     34 C          63.2146   82.8142   11.9203 C.ar    1  UNL1       -0.0029
     35 C          63.0977   81.4447   11.3196 C.ar    1  UNL1       -0.0003
     36 C          62.5160   80.3201   12.1238 C.ar    1  UNL1       -0.0000
     37 C          62.0512   80.5649   13.5288 C.ar    1  UNL1       -0.0003
     38 C          62.1681   81.9344   14.1296 C.ar    1  UNL1       -0.0029
     39 N          61.8056   84.9310   14.8597 N.3     1  UNL1       -0.2932
     40 H          60.9359   84.4701   14.5923 H       1  UNL1        0.1236
     41 C          61.9584   84.7424   16.3399 C.3     1  UNL1        0.0748
     42 C          62.9328   85.5864   17.1068 C.3     1  UNL1        0.0588
     43 C          62.4768   86.8640   17.7471 C.2     1  UNL1        0.0517
     44 O          62.5667   87.0309   19.2351 O.co2   1  UNL1       -0.5491
     45 O          61.9309   87.9746   16.8995 O.co2   1  UNL1       -0.5491
@<TRIPOS>UNITY_ATOM_ATTR
44 1
charge -1
@<TRIPOS>BOND
     1    17    18    1
     2    18    10    1
     3    10    11   ar
     4    11    12   ar
     5    12    13   ar
     6    13    14   ar
     7    14     1    1
     8     1     2   ar
     9     2     3    1
    10     2     4   ar
    11     4    19    1
    12    19    20    1
    13    20    21   ar
    14    21    22    1
    15    21    23   ar
    16    23    24   ar
    17    24    25   ar
    18    25    26   ar
    19    26    27    1
    20    27    28    1
    21    27    29    1
    22    27    30    1
    23     4     5   ar
    24     5     6    2
    25     5     7   ar
    26     7    31    1
    27    32    31    1
    28    32    39    1
    29    39    41    1
    30    41    42    1
    31    42    43    1
    32    43    44   ar
    33    43    45   ar
    34    32    33    1
    35    33    34   ar
    36    34    35   ar
    37    35    36   ar
    38    36    37   ar
    39    37    38   ar
    40     7     8   ar
    41     8     9    2
    42    14    15   ar
    43    15    16    1
    44    15    10   ar
    45     8     1   ar
    46    26    20   ar
    47    38    33   ar
    48    39    40    1
@<TRIPOS>MOLECULE
*****
 45 48 0 0 0
SMALL
GASTEIGER

@<TRIPOS>ATOM
      1 C          63.1835   88.7029   12.7858 C.ar    1  UNL1        0.0703
      2 C          63.5794   87.3336   13.2528 C.ar    1  UNL1        0.0465
      3 C          64.7166   87.1697   14.2172 C.3     1  UNL1        0.0503
      4 N          62.8381   86.1281   12.7555 N.ar    1  UNL1       -0.2806
      5 C          61.7009   86.2920   11.7912 C.ar    1  UNL1        0.3338
      6 O          61.1474   85.5778   11.4013 O.2     1  UNL1       -0.2462
      7 N          61.3050   87.6614   11.3242 N.ar    1  UNL1       -0.2470
      8 C          62.0463   88.8668   11.8214 C.ar    1  UNL1        0.2654
      9 O          61.6505   90.2362   11.3544 O.2     1  UNL1       -0.2668
     10 C          65.1464   92.1521   12.8099 C.ar    1  UNL1        0.1660
     11 C          65.4074   92.3194   14.2775 C.ar    1  UNL1        0.0392
     12 C          64.9271   91.2813   15.2478 C.ar    1  UNL1        0.0033
     13 C          64.1858   90.0758   14.7506 C.ar    1  UNL1        0.0026
     14 C          63.9248   89.9085   13.2830 C.ar    1  UNL1        0.0362
     15 C          64.4052   90.9466   12.3127 C.ar    1  UNL1        0.1739
     16 F          64.1441   90.7792   10.8450 F       1  UNL1       -0.2010
     17 C          66.9131   92.9839   11.0962 C.3     1  UNL1        0.2526
     18 O          65.6267   93.1902   11.8395 O.3     1  UNL1       -0.4692
     19 C          63.2340   84.7588   13.2226 C.3     1  UNL1        0.1391
     20 C          63.3625   83.6375   12.2346 C.ar    1  UNL1        0.0319
     21 C          63.9484   83.8964   10.8783 C.ar    1  UNL1        0.1379
     22 F          64.2792   84.7553   10.5301 F       1  UNL1       -0.2044
     23 C          64.0770   82.7750    9.8903 C.ar    1  UNL1        0.0294
     24 C          63.6196   81.3947   10.2587 C.ar    1  UNL1        0.0022
     25 C          63.0337   81.1358   11.6151 C.ar    1  UNL1        0.0037
     26 C          62.9052   82.2571   12.6030 C.ar    1  UNL1        0.0714
     27 C          62.3193   81.9982   13.9594 C.3     1  UNL1        0.4184
     28 F          61.7334   81.7393   15.3157 F       1  UNL1       -0.1659
     29 F          61.0335   81.5633   13.3210 F       1  UNL1       -0.1659
     30 F          63.6051   82.4331   14.5978 F       1  UNL1       -0.1659
     31 C          60.1678   87.8253   10.3598 C.3     1  UNL1        0.1337
     32 C          60.4411   87.9290    8.8886 C.3     1  UNL1        0.1000
     33 C          60.9668   86.7416    8.1379 C.ar    1  UNL1       -0.0061
     34 C          62.4033   86.3362    8.2865 C.ar    1  UNL1       -0.0029
     35 C          62.9290   85.1488    7.5358 C.ar    1  UNL1       -0.0003
     36 C          62.0183   84.3668    6.6364 C.ar    1  UNL1       -0.0000
     37 C          60.5818   84.7722    6.4876 C.ar    1  UNL1       -0.0003
     38 C          60.0560   85.9596    7.2384 C.ar    1  UNL1       -0.0029
     39 N          60.1886   89.2202    8.1681 N.3     1  UNL1       -0.2932
     40 H          61.0975   89.5726    7.8681 H       1  UNL1        0.1236
     41 C          59.2956   89.2445    6.9631 C.3     1  UNL1        0.0748
     42 C          59.5760   90.1995    5.8410 C.3     1  UNL1        0.0588
     43 C          58.4881   91.0975    5.3308 C.2     1  UNL1        0.0517
     44 O          58.8364   92.3191    4.5331 O.co2   1  UNL1       -0.5491
     45 O          57.0519   90.7737    5.6183 O.co2   1  UNL1       -0.5491
@<TRIPOS>UNITY_ATOM_ATTR
44 1
charge -1
@<TRIPOS>BOND
     1    17    18    1
     2    18    10    1
     3    10    11   ar
     4    11    12   ar
     5    12    13   ar
     6    13    14   ar
     7    14     1    1
     8     1     2   ar
     9     2     3    1
    10     2     4   ar
    11     4    19    1
    12    19    20    1
    13    20    21   ar
    14    21    22    1
    15    21    23   ar
    16    23    24   ar
    17    24    25   ar
    18    25    26   ar
    19    26    27    1
    20    27    28    1
    21    27    29    1
    22    27    30    1
    23     4     5   ar
    24     5     6    2
    25     5     7   ar
    26     7    31    1
    27    32    31    1
    28    32    39    1
    29    39    41    1
    30    41    42    1
    31    42    43    1
    32    43    44   ar
    33    43    45   ar
    34    32    33    1
    35    33    34   ar
    36    34    35   ar
    37    35    36   ar
    38    36    37   ar
    39    37    38   ar
    40     7     8   ar
    41     8     9    2
    42    14    15   ar
    43    15    16    1
    44    15    10   ar
    45     8     1   ar
    46    26    20   ar
    47    38    33   ar
    48    39    40    1
@<TRIPOS>MOLECULE
*****
 45 48 0 0 0
SMALL
GASTEIGER

@<TRIPOS>ATOM
      1 C          63.8087   89.3907   13.7590 C.ar    1  UNL1        0.0703
      2 C          63.1750   89.1129   12.4282 C.ar    1  UNL1        0.0465
      3 C          62.3822   87.8562   12.2227 C.3     1  UNL1        0.0503
      4 N          63.3340   90.0919   11.3028 N.ar    1  UNL1       -0.2806
      5 C          64.1267   91.3486   11.5083 C.ar    1  UNL1        0.3338
      6 O          64.2961   92.0569   10.8464 O.2     1  UNL1       -0.2462
      7 N          64.7605   91.6264   12.8392 N.ar    1  UNL1       -0.2470
      8 C          64.6015   90.6474   13.9645 C.ar    1  UNL1        0.2654
      9 O          65.2352   90.9252   15.2955 O.2     1  UNL1       -0.2668
     10 C          63.8759   85.9964   15.8143 C.ar    1  UNL1        0.1660
     11 C          63.3318   86.4540   17.1351 C.ar    1  UNL1        0.0392
     12 C          62.9467   87.8904   17.3306 C.ar    1  UNL1        0.0033
     13 C          63.1056   88.8694   16.2053 C.ar    1  UNL1        0.0026
     14 C          63.6497   88.4118   14.8845 C.ar    1  UNL1        0.0362
     15 C          64.0349   86.9753   14.6890 C.ar    1  UNL1        0.1739
     16 F          64.5790   86.5178   13.3681 F       1  UNL1       -0.2010
     17 C          63.3273   83.6225   14.9124 C.3     1  UNL1        0.2526
     18 O          64.2611   84.5599   15.6189 O.3     1  UNL1       -0.4692
     19 C          62.7002   89.8140    9.9720 C.3     1  UNL1        0.1391
     20 C          61.8246   88.6091    9.7952 C.ar    1  UNL1        0.0319
     21 C          62.4005   87.3374    9.2464 C.ar    1  UNL1        0.1379
     22 F          63.3319   87.1796    8.9706 F       1  UNL1       -0.2044
     23 C          61.5248   86.1324    9.0696 C.ar    1  UNL1        0.0294
     24 C          60.0733   86.1991    9.4417 C.ar    1  UNL1        0.0022
     25 C          59.4973   87.4707    9.9905 C.ar    1  UNL1        0.0037
     26 C          60.3730   88.6757   10.1673 C.ar    1  UNL1        0.0714
     27 C          59.7970   89.9474   10.7161 C.3     1  UNL1        0.4184
     28 F          59.2211   91.2190   11.2649 F       1  UNL1       -0.1659
     29 F          59.8105   89.3582   12.0955 F       1  UNL1       -0.1659
     30 F          59.7835   90.5366    9.3367 F       1  UNL1       -0.1659
     31 C          65.5532   92.8831   13.0447 C.3     1  UNL1        0.1337
     32 C          66.8167   93.1082   12.2682 C.3     1  UNL1        0.1000
     33 C          66.8356   94.0911   11.1353 C.ar    1  UNL1       -0.0061
     34 C          67.4595   93.7130    9.8247 C.ar    1  UNL1       -0.0029
     35 C          67.4785   94.6959    8.6917 C.ar    1  UNL1       -0.0003
     36 C          66.8736   96.0569    8.8694 C.ar    1  UNL1       -0.0000
     37 C          66.2496   96.4351   10.1800 C.ar    1  UNL1       -0.0003
     38 C          66.2307   95.4522   11.3130 C.ar    1  UNL1       -0.0029
     39 N          68.0612   92.3505   12.6247 N.3     1  UNL1       -0.2932
     40 H          68.8396   93.0034   12.5339 H       1  UNL1        0.1236
     41 C          68.1885   91.7101   13.9751 C.3     1  UNL1        0.0748
     42 C          68.9194   92.4200   15.0759 C.3     1  UNL1        0.0588
     43 C          68.2053   93.4370   15.9161 C.2     1  UNL1        0.0517
     44 O          66.8574   93.1201   16.4931 O.co2   1  UNL1       -0.5491
     45 O          68.8390   94.7708   16.1794 O.co2   1  UNL1       -0.5491
@<TRIPOS>UNITY_ATOM_ATTR
44 1
charge -1
@<TRIPOS>BOND
     1    17    18    1
     2    18    10    1
     3    10    11   ar
     4    11    12   ar
     5    12    13   ar
     6    13    14   ar
     7    14     1    1
     8     1     2   ar
     9     2     3    1
    10     2     4   ar
    11     4    19    1
    12    19    20    1
    13    20    21   ar
    14    21    22    1
    15    21    23   ar
    16    23    24   ar
    17    24    25   ar
    18    25    26   ar
    19    26    27    1
    20    27    28    1
    21    27    29    1
    22    27    30    1
    23     4     5   ar
    24     5     6    2
    25     5     7   ar
    26     7    31    1
    27    32    31    1
    28    32    39    1
    29    39    41    1
    30    41    42    1
    31    42    43    1
    32    43    44   ar
    33    43    45   ar
    34    32    33    1
    35    33    34   ar
    36    34    35   ar
    37    35    36   ar
    38    36    37   ar
    39    37    38   ar
    40     7     8   ar
    41     8     9    2
    42    14    15   ar
    43    15    16    1
    44    15    10   ar
    45     8     1   ar
    46    26    20   ar
    47    38    33   ar
    48    39    40    1
