@<TRIPOS>MOLECULE
*****
 29 31 0 0 0
SMALL
GASTEIGER

@<TRIPOS>ATOM
      1 C          63.5548   89.8782   12.7480 C.ar    1  UNL1        0.1730
      2 C          64.3005   91.1781   12.6835 C.ar    1  UNL1        0.0401
      3 C          64.2743   91.9962   11.4266 C.ar    1  UNL1        0.0039
      4 C          63.5025   91.5145   10.2341 C.ar    1  UNL1        0.0034
      5 C          62.7568   90.2146   10.2985 C.ar    1  UNL1        0.0406
      6 C          62.7830   89.3964   11.5555 C.ar    1  UNL1        0.1790
      7 C          65.0200   93.2962   11.3621 C.2     1  UNL1        0.0113
      8 C          66.2860   93.3958   10.5638 C.2     1  UNL1        0.0873
      9 S          66.9248   92.2866    9.7818 S.3     1  UNL1       -0.0254
     10 C          68.1691   92.8274    9.1419 C.2     1  UNL1        0.2832
     11 O          69.1167   92.0595    8.2688 O.2     1  UNL1       -0.2622
     12 N          68.2992   94.2709    9.5285 N.am    1  UNL1       -0.2425
     13 C          67.1354   94.6222   10.4072 C.2     1  UNL1        0.2583
     14 O          66.8681   95.9642   11.0215 O.2     1  UNL1       -0.2692
     15 H          69.0217   94.8807    9.2537 H       1  UNL1        0.1587
     16 C          63.5902   89.7397   15.3421 C.3     1  UNL1        0.2526
     17 O          63.5810   89.0601   14.0050 O.3     1  UNL1       -0.4684
     18 O          62.0373   88.0965   11.6199 O.3     1  UNL1       -0.4496
     19 C          61.8946   87.2519   10.3886 C.ar    1  UNL1        0.1559
     20 C          62.9143   86.1953   10.0815 C.ar    1  UNL1        0.0383
     21 C          62.7716   85.3507    8.8502 C.ar    1  UNL1        0.0070
     22 C          61.6094   85.5625    7.9259 C.ar    1  UNL1        0.0725
     23 C          60.5898   86.6190    8.2329 C.ar    1  UNL1        0.0183
     24 C          60.7324   87.4637    9.4643 C.ar    1  UNL1        0.0920
     25 CL         59.7128   88.5201    9.7713 Cl      1  UNL1       -0.0791
     26 C          61.4667   84.7179    6.6945 C.3     1  UNL1        0.4186
     27 F          61.3241   83.8732    5.4631 F       1  UNL1       -0.1659
     28 F          62.9592   84.6006    6.6021 F       1  UNL1       -0.1659
     29 F          59.9742   84.8352    6.7870 F       1  UNL1       -0.1659
@<TRIPOS>BOND
     1    16    17    1
     2    17     1    1
     3     1     2   ar
     4     2     3   ar
     5     3     7    1
     6     7     8    2
     7     8     9    1
     8     9    10    1
     9    10    11    2
    10    10    12   am
    11    12    13   am
    12    13    14    2
    13     3     4   ar
    14     4     5   ar
    15     5     6   ar
    16     6    18    1
    17    18    19    1
    18    19    20   ar
    19    20    21   ar
    20    21    22   ar
    21    22    26    1
    22    26    27    1
    23    26    28    1
    24    26    29    1
    25    22    23   ar
    26    23    24   ar
    27    24    25    1
    28     6     1   ar
    29    24    19   ar
    30    13     8    1
    31    12    15    1
@<TRIPOS>MOLECULE
*****
 29 31 0 0 0
SMALL
GASTEIGER

@<TRIPOS>ATOM
      1 C          63.3744   88.7750   12.4955 C.ar    1  UNL1        0.1730
      2 C          64.0561   90.1038   12.6342 C.ar    1  UNL1        0.0401
      3 C          63.8482   91.1655   11.5951 C.ar    1  UNL1        0.0039
      4 C          62.9585   90.8983   10.4174 C.ar    1  UNL1        0.0034
      5 C          62.2768   89.5694   10.2787 C.ar    1  UNL1        0.0406
      6 C          62.4847   88.5078   11.3178 C.ar    1  UNL1        0.1790
      7 C          64.5299   92.4945   11.7339 C.2     1  UNL1        0.0113
      8 C          65.6083   92.6807   12.7598 C.2     1  UNL1        0.0873
      9 S          66.1089   91.6357   13.7124 S.3     1  UNL1       -0.0254
     10 C          67.1854   92.2538   14.5546 C.2     1  UNL1        0.2832
     11 O          67.9610   91.5657   15.6385 O.2     1  UNL1       -0.2622
     12 N          67.3500   93.6807   14.1225 N.am    1  UNL1       -0.2425
     13 C          66.3754   93.9445   13.0132 C.2     1  UNL1        0.2583
     14 O          66.1987   95.2441   12.2853 O.2     1  UNL1       -0.2692
     15 H          67.9862   94.3301   14.5005 H       1  UNL1        0.1587
     16 C          64.2250   88.0614   14.8444 C.3     1  UNL1        0.2526
     17 O          63.5823   87.7133   13.5346 O.3     1  UNL1       -0.4684
     18 O          61.8029   87.1788   11.1791 O.3     1  UNL1       -0.4496
     19 C          61.7972   86.4734    9.8553 C.ar    1  UNL1        0.1559
     20 C          62.9565   85.6065    9.4623 C.ar    1  UNL1        0.0383
     21 C          62.9507   84.9011    8.1386 C.ar    1  UNL1        0.0070
     22 C          61.7856   85.0625    7.2078 C.ar    1  UNL1        0.0725
     23 C          60.6263   85.9294    7.6007 C.ar    1  UNL1        0.0183
     24 C          60.6320   86.6349    8.9245 C.ar    1  UNL1        0.0920
     25 CL         59.4727   87.5018    9.3174 Cl      1  UNL1       -0.0791
     26 C          61.7798   84.3571    5.8840 C.3     1  UNL1        0.4186
     27 F          61.7740   83.6517    4.5602 F       1  UNL1       -0.1659
     28 F          60.3039   84.1240    6.0147 F       1  UNL1       -0.1659
     29 F          63.2558   84.5903    5.7533 F       1  UNL1       -0.1659
@<TRIPOS>BOND
     1    16    17    1
     2    17     1    1
     3     1     2   ar
     4     2     3   ar
     5     3     7    1
     6     7     8    2
     7     8     9    1
     8     9    10    1
     9    10    11    2
    10    10    12   am
    11    12    13   am
    12    13    14    2
    13     3     4   ar
    14     4     5   ar
    15     5     6   ar
    16     6    18    1
    17    18    19    1
    18    19    20   ar
    19    20    21   ar
    20    21    22   ar
    21    22    26    1
    22    26    27    1
    23    26    28    1
    24    26    29    1
    25    22    23   ar
    26    23    24   ar
    27    24    25    1
    28     6     1   ar
    29    24    19   ar
    30    13     8    1
    31    12    15    1
@<TRIPOS>MOLECULE
*****
 29 31 0 0 0
SMALL
GASTEIGER

@<TRIPOS>ATOM
      1 C          62.7057   88.7827   12.0889 C.ar    1  UNL1        0.1730
      2 C          62.9400   89.8718   13.0933 C.ar    1  UNL1        0.0401
      3 C          63.6691   89.5712   14.3693 C.ar    1  UNL1        0.0039
      4 C          64.1638   88.1814   14.6408 C.ar    1  UNL1        0.0034
      5 C          63.9295   87.0923   13.6365 C.ar    1  UNL1        0.0406
      6 C          63.2004   87.3929   12.3605 C.ar    1  UNL1        0.1790
      7 C          63.9035   90.6604   15.3737 C.2     1  UNL1        0.0113
      8 C          65.1689   91.4645   15.3265 C.2     1  UNL1        0.0873
      9 S          66.2848   91.2952   14.3385 S.3     1  UNL1       -0.0254
     10 C          67.3461   92.3051   14.6604 C.2     1  UNL1        0.2832
     11 O          68.6402   92.4892   13.9246 O.2     1  UNL1       -0.2622
     12 N          66.8862   93.0986   15.8474 N.am    1  UNL1       -0.2425
     13 C          65.5406   92.5790   16.2590 C.2     1  UNL1        0.2583
     14 O          64.7121   93.0852   17.4025 O.2     1  UNL1       -0.2692
     15 H          67.3806   93.8316   16.2803 H       1  UNL1        0.1587
     16 C          60.5117   88.7824   10.6974 C.3     1  UNL1        0.2526
     17 O          61.9766   89.0833   10.8130 O.3     1  UNL1       -0.4684
     18 O          62.9660   86.3037   11.3561 O.3     1  UNL1       -0.4496
     19 C          62.8490   84.8785   11.8089 C.ar    1  UNL1        0.1559
     20 C          62.3872   84.5697   13.2022 C.ar    1  UNL1        0.0383
     21 C          62.2702   83.1444   13.6550 C.ar    1  UNL1        0.0070
     22 C          62.6151   82.0280   12.7145 C.ar    1  UNL1        0.0725
     23 C          63.0769   82.3367   11.3212 C.ar    1  UNL1        0.0183
     24 C          63.1939   83.7620   10.8683 C.ar    1  UNL1        0.0920
     25 CL         63.6558   84.0708    9.4751 Cl      1  UNL1       -0.0791
     26 C          62.4981   80.6028   13.1672 C.3     1  UNL1        0.4186
     27 F          62.3811   79.1775   13.6200 F       1  UNL1       -0.1659
     28 F          62.8159   80.1353   11.7778 F       1  UNL1       -0.1659
     29 F          62.1803   81.0703   14.5566 F       1  UNL1       -0.1659
@<TRIPOS>BOND
     1    16    17    1
     2    17     1    1
     3     1     2   ar
     4     2     3   ar
     5     3     7    1
     6     7     8    2
     7     8     9    1
     8     9    10    1
     9    10    11    2
    10    10    12   am
    11    12    13   am
    12    13    14    2
    13     3     4   ar
    14     4     5   ar
    15     5     6   ar
    16     6    18    1
    17    18    19    1
    18    19    20   ar
    19    20    21   ar
    20    21    22   ar
    21    22    26    1
    22    26    27    1
    23    26    28    1
    24    26    29    1
    25    22    23   ar
    26    23    24   ar
    27    24    25    1
    28     6     1   ar
    29    24    19   ar
    30    13     8    1
    31    12    15    1
@<TRIPOS>MOLECULE
*****
 29 31 0 0 0
SMALL
GASTEIGER

@<TRIPOS>ATOM
      1 C          61.5298   89.9001   11.5504 C.ar    1  UNL1        0.1730
      2 C          62.5142   90.8684   12.1363 C.ar    1  UNL1        0.0401
      3 C          63.7121   90.3607   12.8829 C.ar    1  UNL1        0.0039
      4 C          63.9255   88.8848   13.0438 C.ar    1  UNL1        0.0034
      5 C          62.9411   87.9164   12.4579 C.ar    1  UNL1        0.0406
      6 C          61.7432   88.4241   11.7113 C.ar    1  UNL1        0.1790
      7 C          64.6965   91.3291   13.4688 C.2     1  UNL1        0.0113
      8 C          65.4396   92.2766   12.5743 C.2     1  UNL1        0.0873
      9 S          65.3038   92.3715   11.0835 S.3     1  UNL1       -0.0254
     10 C          66.2292   93.4491   10.6013 C.2     1  UNL1        0.2832
     11 O          66.4144   93.8798    9.1765 O.2     1  UNL1       -0.2622
     12 N          66.9369   94.0202   11.7942 N.am    1  UNL1       -0.2425
     13 C          66.4489   93.2956   13.0135 C.2     1  UNL1        0.2583
     14 O          66.8923   93.5461   14.4244 O.2     1  UNL1       -0.2692
     15 H          67.6045   94.7437   11.7794 H       1  UNL1        0.1587
     16 C          59.0774   90.7577   11.5477 C.3     1  UNL1        0.2526
     17 O          60.3320   90.4077   10.8038 O.3     1  UNL1       -0.4684
     18 O          60.7588   87.4557   11.1254 O.3     1  UNL1       -0.4496
     19 C          61.0992   86.7068    9.8711 C.ar    1  UNL1        0.1559
     20 C          62.4048   85.9760    9.7648 C.ar    1  UNL1        0.0383
     21 C          62.7452   85.2271    8.5106 C.ar    1  UNL1        0.0070
     22 C          61.7799   85.2089    7.3626 C.ar    1  UNL1        0.0725
     23 C          60.4743   85.9396    7.4688 C.ar    1  UNL1        0.0183
     24 C          60.1339   86.6885    8.7231 C.ar    1  UNL1        0.0920
     25 CL         58.8282   87.4193    8.8294 Cl      1  UNL1       -0.0791
     26 C          62.1203   84.4599    6.1083 C.3     1  UNL1        0.4186
     27 F          62.4607   83.7110    4.8540 F       1  UNL1       -0.1659
     28 F          63.5575   84.8622    6.2581 F       1  UNL1       -0.1659
     29 F          60.6830   84.0576    5.9585 F       1  UNL1       -0.1659
@<TRIPOS>BOND
     1    16    17    1
     2    17     1    1
     3     1     2   ar
     4     2     3   ar
     5     3     7    1
     6     7     8    2
     7     8     9    1
     8     9    10    1
     9    10    11    2
    10    10    12   am
    11    12    13   am
    12    13    14    2
    13     3     4   ar
    14     4     5   ar
    15     5     6   ar
    16     6    18    1
    17    18    19    1
    18    19    20   ar
    19    20    21   ar
    20    21    22   ar
    21    22    26    1
    22    26    27    1
    23    26    28    1
    24    26    29    1
    25    22    23   ar
    26    23    24   ar
    27    24    25    1
    28     6     1   ar
    29    24    19   ar
    30    13     8    1
    31    12    15    1
@<TRIPOS>MOLECULE
*****
 29 31 0 0 0
SMALL
GASTEIGER

@<TRIPOS>ATOM
      1 C          62.4761   89.4606   10.8505 C.ar    1  UNL1        0.1730
      2 C          63.1432   90.6929   11.3855 C.ar    1  UNL1        0.0401
      3 C          63.9822   90.6129   12.6264 C.ar    1  UNL1        0.0039
      4 C          64.1539   89.3006   13.3323 C.ar    1  UNL1        0.0034
      5 C          63.4867   88.0683   12.7973 C.ar    1  UNL1        0.0406
      6 C          62.6478   88.1483   11.5564 C.ar    1  UNL1        0.1790
      7 C          64.6494   91.8452   13.1614 C.2     1  UNL1        0.0113
      8 C          65.5130   92.6804   12.2633 C.2     1  UNL1        0.0873
      9 S          65.8008   92.4103   10.8162 S.3     1  UNL1       -0.0254
     10 C          66.7062   93.4953   10.3131 C.2     1  UNL1        0.2832
     11 O          67.2451   93.6179    8.9187 O.2     1  UNL1       -0.2622
     12 N          66.9779   94.4361   11.4494 N.am    1  UNL1       -0.2425
     13 C          66.2406   93.9324   12.6546 C.2     1  UNL1        0.2583
     14 O          66.2322   94.5691   14.0128 O.2     1  UNL1       -0.2692
     15 H          67.5414   95.2425   11.4109 H       1  UNL1        0.1587
     16 C          60.1524   89.7239    9.7186 C.3     1  UNL1        0.2526
     17 O          61.6371   89.5406    9.6096 O.3     1  UNL1       -0.4684
     18 O          61.9806   86.9159   11.0214 O.3     1  UNL1       -0.4496
     19 C          62.3682   85.5653   11.5463 C.ar    1  UNL1        0.1559
     20 C          62.1577   85.2347   12.9942 C.ar    1  UNL1        0.0383
     21 C          62.5453   83.8841   13.5191 C.ar    1  UNL1        0.0070
     22 C          63.1433   82.8640   12.5962 C.ar    1  UNL1        0.0725
     23 C          63.3538   83.1946   11.1483 C.ar    1  UNL1        0.0183
     24 C          62.9662   84.5453   10.6233 C.ar    1  UNL1        0.0920
     25 CL         63.1767   84.8759    9.1755 Cl      1  UNL1       -0.0791
     26 C          63.5309   81.5134   13.1211 C.3     1  UNL1        0.4186
     27 F          63.9186   80.1628   13.6461 F       1  UNL1       -0.1659
     28 F          64.2129   82.1629   14.2886 F       1  UNL1       -0.1659
     29 F          62.8490   80.8640   11.9536 F       1  UNL1       -0.1659
@<TRIPOS>BOND
     1    16    17    1
     2    17     1    1
     3     1     2   ar
     4     2     3   ar
     5     3     7    1
     6     7     8    2
     7     8     9    1
     8     9    10    1
     9    10    11    2
    10    10    12   am
    11    12    13   am
    12    13    14    2
    13     3     4   ar
    14     4     5   ar
    15     5     6   ar
    16     6    18    1
    17    18    19    1
    18    19    20   ar
    19    20    21   ar
    20    21    22   ar
    21    22    26    1
    22    26    27    1
    23    26    28    1
    24    26    29    1
    25    22    23   ar
    26    23    24   ar
    27    24    25    1
    28     6     1   ar
    29    24    19   ar
    30    13     8    1
    31    12    15    1
@<TRIPOS>MOLECULE
*****
 29 31 0 0 0
SMALL
GASTEIGER

@<TRIPOS>ATOM
      1 C          62.0055   88.5355   10.5285 C.ar    1  UNL1        0.1730
      2 C          61.9878   87.0595   10.2622 C.ar    1  UNL1        0.0401
      3 C          62.6422   86.1154   11.2269 C.ar    1  UNL1        0.0039
      4 C          63.3143   86.6474   12.4578 C.ar    1  UNL1        0.0034
      5 C          63.3320   88.1235   12.7241 C.ar    1  UNL1        0.0406
      6 C          62.6776   89.0675   11.7594 C.ar    1  UNL1        0.1790
      7 C          62.6245   84.6393   10.9605 C.2     1  UNL1        0.0113
      8 C          63.0351   83.6781   12.0364 C.2     1  UNL1        0.0873
      9 S          63.4847   84.0431   13.4201 S.3     1  UNL1       -0.0254
     10 C          63.7957   82.7737   14.1564 C.2     1  UNL1        0.2832
     11 O          64.2792   82.6718   15.5726 O.2     1  UNL1       -0.2622
     12 N          63.5382   81.6243   13.2277 N.am    1  UNL1       -0.2425
     13 C          63.0681   82.1832   11.9175 C.2     1  UNL1        0.2583
     14 O          62.6963   81.3870   10.7019 O.2     1  UNL1       -0.2692
     15 H          63.6568   80.6704   13.4407 H       1  UNL1        0.1587
     16 C          60.1408   89.0439    8.7923 C.3     1  UNL1        0.2526
     17 O          61.3511   89.4796    9.5639 O.3     1  UNL1       -0.4684
     18 O          62.6953   90.5436   12.0258 O.3     1  UNL1       -0.4496
     19 C          63.8368   91.1555   12.7825 C.ar    1  UNL1        0.1559
     20 C          63.9803   90.9057   14.2546 C.ar    1  UNL1        0.0383
     21 C          65.1218   91.5176   15.0113 C.ar    1  UNL1        0.0070
     22 C          66.1196   92.3794   14.2961 C.ar    1  UNL1        0.0725
     23 C          65.9761   92.6292   12.8240 C.ar    1  UNL1        0.0183
     24 C          64.8346   92.0173   12.0672 C.ar    1  UNL1        0.0920
     25 CL         64.6911   92.2671   10.5952 Cl      1  UNL1       -0.0791
     26 C          67.2610   92.9913   15.0528 C.3     1  UNL1        0.4186
     27 F          68.4025   93.6033   15.8095 F       1  UNL1       -0.1659
     28 F          66.8669   94.3484   14.5499 F       1  UNL1       -0.1659
     29 F          67.6552   91.6342   15.5556 F       1  UNL1       -0.1659
@<TRIPOS>BOND
     1    16    17    1
     2    17     1    1
     3     1     2   ar
     4     2     3   ar
     5     3     7    1
     6     7     8    2
     7     8     9    1
     8     9    10    1
     9    10    11    2
    10    10    12   am
    11    12    13   am
    12    13    14    2
    13     3     4   ar
    14     4     5   ar
    15     5     6   ar
    16     6    18    1
    17    18    19    1
    18    19    20   ar
    19    20    21   ar
    20    21    22   ar
    21    22    26    1
    22    26    27    1
    23    26    28    1
    24    26    29    1
    25    22    23   ar
    26    23    24   ar
    27    24    25    1
    28     6     1   ar
    29    24    19   ar
    30    13     8    1
    31    12    15    1
@<TRIPOS>MOLECULE
*****
 29 31 0 0 0
SMALL
GASTEIGER

@<TRIPOS>ATOM
      1 C          63.3152   86.9811   12.9570 C.ar    1  UNL1        0.1730
      2 C          63.4854   85.5838   12.4386 C.ar    1  UNL1        0.0401
      3 C          62.8835   85.1941   11.1211 C.ar    1  UNL1        0.0039
      4 C          62.1113   86.2016   10.3220 C.ar    1  UNL1        0.0034
      5 C          61.9411   87.5988   10.8404 C.ar    1  UNL1        0.0406
      6 C          62.5430   87.9886   12.1579 C.ar    1  UNL1        0.1790
      7 C          63.0538   83.7968   10.6028 C.2     1  UNL1        0.0113
      8 C          62.8785   82.6278   11.5262 C.2     1  UNL1        0.0873
      9 S          62.5345   82.6999   12.9845 S.3     1  UNL1       -0.0254
     10 C          62.4599   81.2981   13.5130 C.2     1  UNL1        0.2832
     11 O          62.1430   80.9040   14.9252 O.2     1  UNL1       -0.2622
     12 N          62.7577   80.3596   12.3814 N.am    1  UNL1       -0.2425
     13 C          63.0164   81.1814   11.1535 C.2     1  UNL1        0.2583
     14 O          63.3538   80.6500    9.7920 O.2     1  UNL1       -0.2692
     15 H          62.7795   79.3768   12.4352 H       1  UNL1        0.1587
     16 C          64.3163   86.3121   15.2592 C.3     1  UNL1        0.2526
     17 O          63.9171   87.3708   14.2745 O.3     1  UNL1       -0.4684
     18 O          62.3727   89.3859   12.6762 O.3     1  UNL1       -0.4496
     19 C          63.3430   90.4576   12.2763 C.ar    1  UNL1        0.1559
     20 C          63.3643   90.9609   10.8634 C.ar    1  UNL1        0.0383
     21 C          64.3346   92.0326   10.4636 C.ar    1  UNL1        0.0070
     22 C          65.2836   92.6010   11.4766 C.ar    1  UNL1        0.0725
     23 C          65.2624   92.0978   12.8894 C.ar    1  UNL1        0.0183
     24 C          64.2921   91.0260   13.2893 C.ar    1  UNL1        0.0920
     25 CL         64.2708   90.5227   14.7022 Cl      1  UNL1       -0.0791
     26 C          66.2539   93.6728   11.0767 C.3     1  UNL1        0.4186
     27 F          67.2243   94.7445   10.6769 F       1  UNL1       -0.1659
     28 F          66.2105   94.2313   12.4682 F       1  UNL1       -0.1659
     29 F          66.2974   93.1142    9.6853 F       1  UNL1       -0.1659
@<TRIPOS>BOND
     1    16    17    1
     2    17     1    1
     3     1     2   ar
     4     2     3   ar
     5     3     7    1
     6     7     8    2
     7     8     9    1
     8     9    10    1
     9    10    11    2
    10    10    12   am
    11    12    13   am
    12    13    14    2
    13     3     4   ar
    14     4     5   ar
    15     5     6   ar
    16     6    18    1
    17    18    19    1
    18    19    20   ar
    19    20    21   ar
    20    21    22   ar
    21    22    26    1
    22    26    27    1
    23    26    28    1
    24    26    29    1
    25    22    23   ar
    26    23    24   ar
    27    24    25    1
    28     6     1   ar
    29    24    19   ar
    30    13     8    1
    31    12    15    1
@<TRIPOS>MOLECULE
*****
 29 31 0 0 0
SMALL
GASTEIGER

@<TRIPOS>ATOM
      1 C          63.2714   88.1303   12.5508 C.ar    1  UNL1        0.1730
      2 C          63.0763   86.6686   12.8255 C.ar    1  UNL1        0.0401
      3 C          63.5841   86.0716   14.1045 C.ar    1  UNL1        0.0039
      4 C          64.2871   86.9361   15.1086 C.ar    1  UNL1        0.0034
      5 C          64.4823   88.3977   14.8338 C.ar    1  UNL1        0.0406
      6 C          63.9744   88.9948   13.5549 C.ar    1  UNL1        0.1790
      7 C          63.3889   84.6099   14.3792 C.2     1  UNL1        0.0113
      8 C          63.6711   83.6008   13.3058 C.2     1  UNL1        0.0873
      9 S          64.1510   83.9018   11.9169 S.3     1  UNL1       -0.0254
     10 C          64.2993   82.6006   11.1855 C.2     1  UNL1        0.2832
     11 O          64.7558   82.4338    9.7664 O.2     1  UNL1       -0.2622
     12 N          63.9111   81.4954   12.1224 N.am    1  UNL1       -0.2425
     13 C          63.5228   82.1135   13.4328 C.2     1  UNL1        0.2583
     14 O          63.0664   81.3742   14.6556 O.2     1  UNL1       -0.2692
     15 H          63.9111   80.5332   11.9139 H       1  UNL1        0.1587
     16 C          61.4536   88.2726   10.7001 C.3     1  UNL1        0.2526
     17 O          62.7636   88.7273   11.2719 O.3     1  UNL1       -0.4684
     18 O          64.1696   90.4565   13.2802 O.3     1  UNL1       -0.4496
     19 C          65.2977   91.1984   13.9336 C.ar    1  UNL1        0.1559
     20 C          66.5584   91.4721   13.1681 C.ar    1  UNL1        0.0383
     21 C          67.6864   92.2139   13.8216 C.ar    1  UNL1        0.0070
     22 C          67.5540   92.6821   15.2405 C.ar    1  UNL1        0.0725
     23 C          66.2934   92.4084   16.0059 C.ar    1  UNL1        0.0183
     24 C          65.1652   91.6665   15.3525 C.ar    1  UNL1        0.0920
     25 CL         63.9046   91.3929   16.1180 Cl      1  UNL1       -0.0791
     26 C          68.6820   93.4240   15.8939 C.3     1  UNL1        0.4186
     27 F          69.8102   94.1659   16.5473 F       1  UNL1       -0.1659
     28 F          68.1434   94.7165   15.3564 F       1  UNL1       -0.1659
     29 F          69.2207   92.1314   16.4314 F       1  UNL1       -0.1659
@<TRIPOS>BOND
     1    16    17    1
     2    17     1    1
     3     1     2   ar
     4     2     3   ar
     5     3     7    1
     6     7     8    2
     7     8     9    1
     8     9    10    1
     9    10    11    2
    10    10    12   am
    11    12    13   am
    12    13    14    2
    13     3     4   ar
    14     4     5   ar
    15     5     6   ar
    16     6    18    1
    17    18    19    1
    18    19    20   ar
    19    20    21   ar
    20    21    22   ar
    21    22    26    1
    22    26    27    1
    23    26    28    1
    24    26    29    1
    25    22    23   ar
    26    23    24   ar
    27    24    25    1
    28     6     1   ar
    29    24    19   ar
    30    13     8    1
    31    12    15    1
@<TRIPOS>MOLECULE
*****
 29 31 0 0 0
SMALL
GASTEIGER

@<TRIPOS>ATOM
      1 C          63.4059   87.3042   16.5491 C.ar    1  UNL1        0.1730
      2 C          63.4025   85.8100   16.4176 C.ar    1  UNL1        0.0401
      3 C          63.8340   85.1693   15.1318 C.ar    1  UNL1        0.0039
      4 C          64.2688   86.0227   13.9775 C.ar    1  UNL1        0.0034
      5 C          64.2722   87.5169   14.1090 C.ar    1  UNL1        0.0406
      6 C          63.8408   88.1577   15.3948 C.ar    1  UNL1        0.1790
      7 C          63.8305   83.6750   15.0004 C.2     1  UNL1        0.0113
      8 C          63.8224   83.0418   13.6406 C.2     1  UNL1        0.0873
      9 S          63.8171   83.7696   12.3291 S.3     1  UNL1       -0.0254
     10 C          63.8096   82.7472   11.2315 C.2     1  UNL1        0.2832
     11 O          63.8026   83.0342    9.7592 O.2     1  UNL1       -0.2622
     12 N          63.8103   81.3874   11.8647 N.am    1  UNL1       -0.2425
     13 C          63.8182   81.5695   13.3536 C.2     1  UNL1        0.2583
     14 O          63.8214   80.4719   14.3761 O.2     1  UNL1       -0.2692
     15 H          63.8063   80.5266   11.3870 H       1  UNL1        0.1587
     16 C          62.6042   87.0910   19.0112 C.3     1  UNL1        0.2526
     17 O          62.9744   87.9450   17.8349 O.3     1  UNL1       -0.4684
     18 O          63.8442   89.6519   15.5263 O.3     1  UNL1       -0.4496
     19 C          64.5236   90.4946   14.4879 C.ar    1  UNL1        0.1559
     20 C          65.8979   91.0381   14.7447 C.ar    1  UNL1        0.0383
     21 C          66.5773   91.8808   13.7063 C.ar    1  UNL1        0.0070
     22 C          65.8824   92.1800   12.4111 C.ar    1  UNL1        0.0725
     23 C          64.5082   91.6366   12.1543 C.ar    1  UNL1        0.0183
     24 C          63.8287   90.7939   13.1927 C.ar    1  UNL1        0.0920
     25 CL         62.4544   90.2504   12.9358 Cl      1  UNL1       -0.0791
     26 C          66.5618   93.0227   11.3727 C.3     1  UNL1        0.4186
     27 F          67.2413   93.8654   10.3343 F       1  UNL1       -0.1659
     28 F          67.7247   92.0753   11.3647 F       1  UNL1       -0.1659
     29 F          65.3989   93.9701   11.3807 F       1  UNL1       -0.1659
@<TRIPOS>BOND
     1    16    17    1
     2    17     1    1
     3     1     2   ar
     4     2     3   ar
     5     3     7    1
     6     7     8    2
     7     8     9    1
     8     9    10    1
     9    10    11    2
    10    10    12   am
    11    12    13   am
    12    13    14    2
    13     3     4   ar
    14     4     5   ar
    15     5     6   ar
    16     6    18    1
    17    18    19    1
    18    19    20   ar
    19    20    21   ar
    20    21    22   ar
    21    22    26    1
    22    26    27    1
    23    26    28    1
    24    26    29    1
    25    22    23   ar
    26    23    24   ar
    27    24    25    1
    28     6     1   ar
    29    24    19   ar
    30    13     8    1
    31    12    15    1
