@<TRIPOS>MOLECULE
*****
 16 16 0 0 0
SMALL
GASTEIGER

@<TRIPOS>ATOM
      1 C          63.6840   83.4994   12.1725 C.ar    1  UNL1        0.1386
      2 C          64.0648   83.2561   10.7422 C.ar    1  UNL1        0.0382
      3 C          63.5030   84.1271    9.6579 C.ar    1  UNL1        0.0178
      4 C          62.5603   85.2414   10.0038 C.ar    1  UNL1        0.0497
      5 C          62.1795   85.4846   11.4341 C.ar    1  UNL1        0.0178
      6 C          62.7413   84.6137   12.5184 C.ar    1  UNL1        0.0382
      7 N          61.9985   86.1123    8.9195 N.pl3   1  UNL1       -0.2930
      8 H          62.5791   86.4241    8.1881 H       1  UNL1        0.1538
      9 C          60.5520   86.5083    8.9495 C.2     1  UNL1        0.2056
     10 N          59.6784   86.2484    7.7582 N.2     1  UNL1       -0.0679
     11 O          58.2319   86.6445    7.7883 O.2     1  UNL1       -0.4077
     12 H          57.6862   86.4822    7.0441 H       1  UNL1        0.3278
     13 O          64.2458   82.6285   13.2568 O.3     1  UNL1       -0.4755
     14 C          63.7421   81.2262   13.4290 C.3     1  UNL1        0.2054
     15 C          61.2166   81.0920   14.0242 C.3     1  UNL1        0.0040
     16 C          62.3333   80.8828   13.0448 C.3     1  UNL1        0.0473
@<TRIPOS>BOND
     1    15    16    1
     2    16    14    1
     3    14    13    1
     4    13     1    1
     5     1     2   ar
     6     2     3   ar
     7     3     4   ar
     8     4     7    1
     9     7     9    1
    10     9    10    2
    11    10    11    1
    12     4     5   ar
    13     5     6   ar
    14     6     1   ar
    15     7     8    1
    16    11    12    1
@<TRIPOS>MOLECULE
*****
 16 16 0 0 0
SMALL
GASTEIGER

@<TRIPOS>ATOM
      1 C          63.8610   83.4660   11.9255 C.ar    1  UNL1        0.1386
      2 C          62.9344   84.5937   12.2714 C.ar    1  UNL1        0.0382
      3 C          62.3449   85.4408   11.1829 C.ar    1  UNL1        0.0178
      4 C          62.6821   85.1603    9.7485 C.ar    1  UNL1        0.0497
      5 C          63.6087   84.0326    9.4026 C.ar    1  UNL1        0.0178
      6 C          64.1982   83.1855   10.4911 C.ar    1  UNL1        0.0382
      7 N          62.0926   86.0074    8.6599 N.pl3   1  UNL1       -0.2930
      8 H          62.6595   86.3211    7.9187 H       1  UNL1        0.1538
      9 C          60.6393   86.3766    8.7007 C.2     1  UNL1        0.2056
     10 N          59.7493   86.0489    7.5386 N.2     1  UNL1       -0.0679
     11 O          58.2960   86.4181    7.5794 O.2     1  UNL1       -0.4077
     12 H          57.7401   86.2134    6.8535 H       1  UNL1        0.3278
     13 O          64.4505   82.6189   13.0140 O.3     1  UNL1       -0.4755
     14 C          63.7339   81.3844   13.4750 C.3     1  UNL1        0.2054
     15 C          61.2146   80.9911   13.9739 C.3     1  UNL1        0.0040
     16 C          62.3428   81.1001   12.9912 C.3     1  UNL1        0.0473
@<TRIPOS>BOND
     1    15    16    1
     2    16    14    1
     3    14    13    1
     4    13     1    1
     5     1     2   ar
     6     2     3   ar
     7     3     4   ar
     8     4     7    1
     9     7     9    1
    10     9    10    2
    11    10    11    1
    12     4     5   ar
    13     5     6   ar
    14     6     1   ar
    15     7     8    1
    16    11    12    1
@<TRIPOS>MOLECULE
*****
 16 16 0 0 0
SMALL
GASTEIGER

@<TRIPOS>ATOM
      1 C          63.6521   90.5744   13.0242 C.ar    1  UNL1        0.1386
      2 C          64.8148   91.4319   13.4272 C.ar    1  UNL1        0.0382
      3 C          65.4413   92.3624   12.4314 C.ar    1  UNL1        0.0178
      4 C          64.9050   92.4353   11.0325 C.ar    1  UNL1        0.0497
      5 C          63.7422   91.5778   10.6294 C.ar    1  UNL1        0.0178
      6 C          63.1158   90.6473   11.6253 C.ar    1  UNL1        0.0382
      7 N          65.5315   93.3658   10.0366 N.pl3   1  UNL1       -0.2930
      8 H          64.9934   93.7301    9.2970 H       1  UNL1        0.1538
      9 C          66.9779   93.7411   10.1675 C.2     1  UNL1        0.2056
     10 N          68.0433   92.8000    9.6888 N.2     1  UNL1       -0.0679
     11 O          69.4897   93.1755    9.8198 O.2     1  UNL1       -0.4077
     12 H          70.1552   92.5876    9.5208 H       1  UNL1        0.3278
     13 O          63.0256   89.6439   14.0201 O.3     1  UNL1       -0.4755
     14 C          63.7803   89.2476   15.2543 C.3     1  UNL1        0.2054
     15 C          62.9513   87.8279   17.2661 C.3     1  UNL1        0.0040
     16 C          63.0678   89.1520   16.5708 C.3     1  UNL1        0.0473
@<TRIPOS>BOND
     1    15    16    1
     2    16    14    1
     3    14    13    1
     4    13     1    1
     5     1     2   ar
     6     2     3   ar
     7     3     4   ar
     8     4     7    1
     9     7     9    1
    10     9    10    2
    11    10    11    1
    12     4     5   ar
    13     5     6   ar
    14     6     1   ar
    15     7     8    1
    16    11    12    1
@<TRIPOS>MOLECULE
*****
 16 16 0 0 0
SMALL
GASTEIGER

@<TRIPOS>ATOM
      1 C          63.4810   83.4813   11.1663 C.ar    1  UNL1        0.1386
      2 C          62.7166   84.3242   12.1436 C.ar    1  UNL1        0.0382
      3 C          62.0439   85.5832   11.6828 C.ar    1  UNL1        0.0178
      4 C          62.1357   85.9994   10.2447 C.ar    1  UNL1        0.0497
      5 C          62.9002   85.1566    9.2674 C.ar    1  UNL1        0.0178
      6 C          63.5729   83.8976    9.7282 C.ar    1  UNL1        0.0382
      7 N          61.4631   87.2585    9.7838 N.pl3   1  UNL1       -0.2930
      8 H          61.5862   87.5721    8.8588 H       1  UNL1        0.1538
      9 C          60.6029   88.0397   10.7324 C.2     1  UNL1        0.2056
     10 N          61.2339   88.9794   11.7167 N.2     1  UNL1       -0.0679
     11 O          60.3737   89.7606   12.6653 O.2     1  UNL1       -0.4077
     12 H          60.7678   90.3476   13.2801 H       1  UNL1        0.3278
     13 O          64.1537   82.2223   11.6272 O.3     1  UNL1       -0.4755
     14 C          63.7667   81.6013   12.9366 C.3     1  UNL1        0.2054
     15 C          61.4437   81.0458   13.9590 C.3     1  UNL1        0.0040
     16 C          62.5624   80.7107   13.0175 C.3     1  UNL1        0.0473
@<TRIPOS>BOND
     1    15    16    1
     2    16    14    1
     3    14    13    1
     4    13     1    1
     5     1     2   ar
     6     2     3   ar
     7     3     4   ar
     8     4     7    1
     9     7     9    1
    10     9    10    2
    11    10    11    1
    12     4     5   ar
    13     5     6   ar
    14     6     1   ar
    15     7     8    1
    16    11    12    1
@<TRIPOS>MOLECULE
*****
 16 16 0 0 0
SMALL
GASTEIGER

@<TRIPOS>ATOM
      1 C          62.7444   89.4985   11.9193 C.ar    1  UNL1        0.1386
      2 C          62.9834   90.3914   10.7380 C.ar    1  UNL1        0.0382
      3 C          63.9180   91.5586   10.8570 C.ar    1  UNL1        0.0178
      4 C          64.6136   91.8329   12.1574 C.ar    1  UNL1        0.0497
      5 C          64.3746   90.9400   13.3387 C.ar    1  UNL1        0.0178
      6 C          63.4400   89.7728   13.2197 C.ar    1  UNL1        0.0382
      7 N          65.5482   93.0001   12.2764 N.pl3   1  UNL1       -0.2930
      8 H          65.4005   93.8066   11.7314 H       1  UNL1        0.1538
      9 C          66.7079   92.9385   13.2257 C.2     1  UNL1        0.2056
     10 N          67.9214   92.1291   12.8759 N.2     1  UNL1       -0.0679
     11 O          69.0811   92.0676   13.8253 O.2     1  UNL1       -0.4077
     12 H          69.8391   91.5620   13.6068 H       1  UNL1        0.3278
     13 O          61.8097   88.3313   11.8003 O.3     1  UNL1       -0.4755
     14 C          61.7729   87.5260   10.5355 C.3     1  UNL1        0.2054
     15 C          62.2635   85.1341   11.4233 C.3     1  UNL1        0.0040
     16 C          61.4372   86.0649   10.5861 C.3     1  UNL1        0.0473
@<TRIPOS>BOND
     1    15    16    1
     2    16    14    1
     3    14    13    1
     4    13     1    1
     5     1     2   ar
     6     2     3   ar
     7     3     4   ar
     8     4     7    1
     9     7     9    1
    10     9    10    2
    11    10    11    1
    12     4     5   ar
    13     5     6   ar
    14     6     1   ar
    15     7     8    1
    16    11    12    1
@<TRIPOS>MOLECULE
*****
 16 16 0 0 0
SMALL
GASTEIGER

@<TRIPOS>ATOM
      1 C          63.2516   84.4967   10.0413 C.ar    1  UNL1        0.1386
      2 C          62.4721   84.9742   11.2306 C.ar    1  UNL1        0.0382
      3 C          61.4102   86.0199   11.0607 C.ar    1  UNL1        0.0178
      4 C          61.1278   86.5881    9.7015 C.ar    1  UNL1        0.0497
      5 C          61.9072   86.1106    8.5123 C.ar    1  UNL1        0.0178
      6 C          62.9691   85.0649    8.6822 C.ar    1  UNL1        0.0382
      7 N          60.0659   87.6338    9.5316 N.pl3   1  UNL1       -0.2930
      8 H          59.7856   88.1803   10.3011 H       1  UNL1        0.1538
      9 C          59.4310   87.8469    8.1894 C.2     1  UNL1        0.2056
     10 N          59.5968   89.1586    7.4811 N.2     1  UNL1       -0.0679
     11 O          58.9619   89.3716    6.1388 O.2     1  UNL1       -0.4077
     12 H          59.0655   90.1910    5.6963 H       1  UNL1        0.3278
     13 O          64.3135   83.4510   10.2112 O.3     1  UNL1       -0.4755
     14 C          64.2620   82.5129   11.3805 C.3     1  UNL1        0.2054
     15 C          62.3302   81.4888   12.7838 C.3     1  UNL1        0.0040
     16 C          63.1264   81.5419   11.5137 C.3     1  UNL1        0.0473
@<TRIPOS>BOND
     1    15    16    1
     2    16    14    1
     3    14    13    1
     4    13     1    1
     5     1     2   ar
     6     2     3   ar
     7     3     4   ar
     8     4     7    1
     9     7     9    1
    10     9    10    2
    11    10    11    1
    12     4     5   ar
    13     5     6   ar
    14     6     1   ar
    15     7     8    1
    16    11    12    1
@<TRIPOS>MOLECULE
*****
 16 16 0 0 0
SMALL
GASTEIGER

@<TRIPOS>ATOM
      1 C          62.6083   89.5427   11.6495 C.ar    1  UNL1        0.1386
      2 C          62.7858   90.4247   10.4493 C.ar    1  UNL1        0.0382
      3 C          63.7532   91.5701   10.4967 C.ar    1  UNL1        0.0178
      4 C          64.5430   91.8336   11.7444 C.ar    1  UNL1        0.0497
      5 C          64.3655   90.9517   12.9446 C.ar    1  UNL1        0.0178
      6 C          63.3982   89.8062   12.8972 C.ar    1  UNL1        0.0382
      7 N          65.5103   92.9790   11.7918 N.pl3   1  UNL1       -0.2930
      8 H          65.2601   93.8162   12.2455 H       1  UNL1        0.1538
      9 C          66.8588   92.8490   11.1480 C.2     1  UNL1        0.2056
     10 N          67.4093   93.9765   10.3258 N.2     1  UNL1       -0.0679
     11 O          68.7579   93.8464    9.6820 O.2     1  UNL1       -0.4077
     12 H          69.1017   94.5507    9.1684 H       1  UNL1        0.3278
     13 O          61.6410   88.3973   11.6021 O.3     1  UNL1       -0.4755
     14 C          62.0626   87.0835   11.0139 C.3     1  UNL1        0.2054
     15 C          60.7810   86.2896    8.8979 C.3     1  UNL1        0.0040
     16 C          62.0094   86.8747    9.5294 C.3     1  UNL1        0.0473
@<TRIPOS>BOND
     1    15    16    1
     2    16    14    1
     3    14    13    1
     4    13     1    1
     5     1     2   ar
     6     2     3   ar
     7     3     4   ar
     8     4     7    1
     9     7     9    1
    10     9    10    2
    11    10    11    1
    12     4     5   ar
    13     5     6   ar
    14     6     1   ar
    15     7     8    1
    16    11    12    1
@<TRIPOS>MOLECULE
*****
 16 16 0 0 0
SMALL
GASTEIGER

@<TRIPOS>ATOM
      1 C          66.1377   93.2639   11.7586 C.ar    1  UNL1        0.1386
      2 C          66.2876   92.8366   13.1886 C.ar    1  UNL1        0.0382
      3 C          65.3809   91.7851   13.7562 C.ar    1  UNL1        0.0178
      4 C          64.3243   91.1609   12.8939 C.ar    1  UNL1        0.0497
      5 C          64.1743   91.5881   11.4639 C.ar    1  UNL1        0.0178
      6 C          65.0810   92.6396   10.8963 C.ar    1  UNL1        0.0382
      7 N          63.4175   90.1093   13.4615 N.pl3   1  UNL1       -0.2930
      8 H          62.5463   90.3642   13.8427 H       1  UNL1        0.1538
      9 C          63.8382   88.6696   13.4484 C.2     1  UNL1        0.2056
     10 N          64.1043   87.9542   14.7397 N.2     1  UNL1       -0.0679
     11 O          64.5249   86.5144   14.7265 O.2     1  UNL1       -0.4077
     12 H          64.6911   86.0675   15.5331 H       1  UNL1        0.3278
     13 O          67.0444   94.3154   11.1910 O.3     1  UNL1       -0.4755
     14 C          67.1758   94.4696    9.7048 C.3     1  UNL1        0.2054
     15 C          68.5218   92.2940    9.2518 C.3     1  UNL1        0.0040
     16 C          68.2630   93.7442    8.9687 C.3     1  UNL1        0.0473
@<TRIPOS>BOND
     1    15    16    1
     2    16    14    1
     3    14    13    1
     4    13     1    1
     5     1     2   ar
     6     2     3   ar
     7     3     4   ar
     8     4     7    1
     9     7     9    1
    10     9    10    2
    11    10    11    1
    12     4     5   ar
    13     5     6   ar
    14     6     1   ar
    15     7     8    1
    16    11    12    1
@<TRIPOS>MOLECULE
*****
 16 16 0 0 0
SMALL
GASTEIGER

@<TRIPOS>ATOM
      1 C          61.0296   87.1840    9.4716 C.ar    1  UNL1        0.1386
      2 C          61.5860   88.5448    9.7689 C.ar    1  UNL1        0.0382
      3 C          62.4368   88.7577   10.9858 C.ar    1  UNL1        0.0178
      4 C          62.7310   87.6099   11.9054 C.ar    1  UNL1        0.0497
      5 C          62.1746   86.2490   11.6081 C.ar    1  UNL1        0.0178
      6 C          61.3238   86.0361   10.3912 C.ar    1  UNL1        0.0382
      7 N          63.5818   87.8228   13.1223 N.pl3   1  UNL1       -0.2930
      8 H          63.9268   87.0487   13.6233 H       1  UNL1        0.1538
      9 C          63.9068   89.2151   13.5760 C.2     1  UNL1        0.2056
     10 N          62.9842   89.9320   14.5167 N.2     1  UNL1       -0.0679
     11 O          63.3093   91.3243   14.9704 O.2     1  UNL1       -0.4077
     12 H          62.7330   91.7721   15.5580 H       1  UNL1        0.3278
     13 O          60.1788   86.9710    8.2546 O.3     1  UNL1       -0.4755
     14 C          60.3300   85.7182    7.4437 C.3     1  UNL1        0.2054
     15 C          61.9042   84.3048    5.9357 C.3     1  UNL1        0.0040
     16 C          61.6977   85.1880    7.1305 C.3     1  UNL1        0.0473
@<TRIPOS>BOND
     1    15    16    1
     2    16    14    1
     3    14    13    1
     4    13     1    1
     5     1     2   ar
     6     2     3   ar
     7     3     4   ar
     8     4     7    1
     9     7     9    1
    10     9    10    2
    11    10    11    1
    12     4     5   ar
    13     5     6   ar
    14     6     1   ar
    15     7     8    1
    16    11    12    1
