@<TRIPOS>MOLECULE
*****
 24 26 0 0 0
SMALL
GASTEIGER

@<TRIPOS>ATOM
      1 C          62.7938   87.9637   16.8759 C.3     1  UNL1        0.2590
      2 C          63.2795   89.2410   16.2574 C.ar    1  UNL1        0.1451
      3 C          63.9464   89.3755   14.9206 C.ar    1  UNL1        0.1222
      4 N          64.2627   90.8257   14.7042 N.ar    1  UNL1       -0.2091
      5 N          63.7913   91.5875   15.9074 N.ar    1  UNL1       -0.0597
      6 N          63.1837   90.6080   16.8673 N.ar    1  UNL1       -0.1291
      7 C          64.9327   91.4113   13.4967 C.ar    1  UNL1        0.0845
      8 C          66.3495   91.8960   13.5862 C.ar    1  UNL1        0.0201
      9 C          67.0195   92.4817   12.3787 C.ar    1  UNL1        0.0129
     10 C          66.2729   92.5827   11.0817 C.ar    1  UNL1        0.0578
     11 CL         66.9429   93.1683    9.8742 Cl      1  UNL1       -0.0822
     12 C          64.8562   92.0980   10.9922 C.ar    1  UNL1        0.0129
     13 C          64.1861   91.5123   12.1997 C.ar    1  UNL1        0.0201
     14 O          63.6949   86.7657   16.9283 O.3     1  UNL1       -0.4277
     15 O          64.9947   85.6312   14.9857 O.2     1  UNL1       -0.2261
     16 C          63.7324   85.8045   15.7773 C.2     1  UNL1        0.4058
     17 N          62.5077   85.0166   15.4179 N.am    1  UNL1       -0.2499
     18 H          61.6792   85.1303   15.9374 H       1  UNL1        0.1582
     19 C          62.5452   84.0553   14.2669 C.ar    1  UNL1        0.0532
     20 C          62.3928   82.5837   14.5135 C.ar    1  UNL1        0.0148
     21 C          62.4303   81.6225   13.3625 C.ar    1  UNL1        0.0013
     22 C          62.6203   82.1331   11.9649 C.ar    1  UNL1        0.0001
     23 C          62.7727   83.6048   11.7183 C.ar    1  UNL1        0.0013
     24 C          62.7351   84.5659   12.8693 C.ar    1  UNL1        0.0148
@<TRIPOS>BOND
     1    15    16    2
     2    16    17   am
     3    17    19    1
     4    19    20   ar
     5    20    21   ar
     6    21    22   ar
     7    22    23   ar
     8    23    24   ar
     9    16    14    1
    10    14     1    1
    11     1     2    1
    12     2     3   ar
    13     3     4   ar
    14     4     7    1
    15     7     8   ar
    16     8     9   ar
    17     9    10   ar
    18    10    11    1
    19    10    12   ar
    20    12    13   ar
    21     4     5   ar
    22     5     6   ar
    23    24    19   ar
    24     6     2   ar
    25    13     7   ar
    26    17    18    1
@<TRIPOS>MOLECULE
*****
 24 26 0 0 0
SMALL
GASTEIGER

@<TRIPOS>ATOM
      1 C          64.5660   90.9736   14.5546 C.3     1  UNL1        0.2590
      2 C          63.9958   89.8261   13.7748 C.ar    1  UNL1        0.1451
      3 C          63.1086   89.9332   12.5700 C.ar    1  UNL1        0.1222
      4 N          62.7772   88.5433   12.1134 N.ar    1  UNL1       -0.2091
      5 N          63.4595   87.5773   13.0361 N.ar    1  UNL1       -0.0597
      6 N          64.2126   88.3702   14.0629 N.ar    1  UNL1       -0.1291
      7 C          61.9148   88.1828   10.9403 C.ar    1  UNL1        0.0845
      8 C          61.2820   89.2633   10.1144 C.ar    1  UNL1        0.0201
      9 C          60.4197   88.9028    8.9412 C.ar    1  UNL1        0.0129
     10 C          60.1901   87.4618    8.5939 C.ar    1  UNL1        0.0578
     11 CL         59.3278   87.1012    7.4207 Cl      1  UNL1       -0.0822
     12 C          60.8229   86.3812    9.4198 C.ar    1  UNL1        0.0129
     13 C          61.6852   86.7418   10.5929 C.ar    1  UNL1        0.0201
     14 O          66.0484   91.2006   14.5791 O.3     1  UNL1       -0.4277
     15 O          68.1646   92.3174   13.5669 O.2     1  UNL1       -0.2261
     16 C          66.7070   91.9753   13.4763 C.2     1  UNL1        0.4058
     17 N          65.9079   92.4080   12.2829 N.am    1  UNL1       -0.2499
     18 H          64.9512   92.1834   12.2235 H       1  UNL1        0.1582
     19 C          66.5664   93.1827   11.1801 C.ar    1  UNL1        0.0532
     20 C          67.4522   92.4794   10.1948 C.ar    1  UNL1        0.0148
     21 C          68.1107   93.2542    9.0921 C.ar    1  UNL1        0.0013
     22 C          67.8834   94.7322    8.9746 C.ar    1  UNL1        0.0001
     23 C          66.9976   95.4355    9.9598 C.ar    1  UNL1        0.0013
     24 C          66.3391   94.6607   11.0626 C.ar    1  UNL1        0.0148
@<TRIPOS>BOND
     1    15    16    2
     2    16    17   am
     3    17    19    1
     4    19    20   ar
     5    20    21   ar
     6    21    22   ar
     7    22    23   ar
     8    23    24   ar
     9    16    14    1
    10    14     1    1
    11     1     2    1
    12     2     3   ar
    13     3     4   ar
    14     4     7    1
    15     7     8   ar
    16     8     9   ar
    17     9    10   ar
    18    10    11    1
    19    10    12   ar
    20    12    13   ar
    21     4     5   ar
    22     5     6   ar
    23    24    19   ar
    24     6     2   ar
    25    13     7   ar
    26    17    18    1
@<TRIPOS>MOLECULE
*****
 24 26 0 0 0
SMALL
GASTEIGER

@<TRIPOS>ATOM
      1 C          63.5346   86.1943   16.5893 C.3     1  UNL1        0.2590
      2 C          63.5014   87.6144   16.1077 C.ar    1  UNL1        0.1451
      3 C          64.1871   88.1469   14.8845 C.ar    1  UNL1        0.1222
      4 N          63.8862   89.6131   14.7856 N.ar    1  UNL1       -0.2091
      5 N          63.0144   89.9867   15.9477 N.ar    1  UNL1       -0.0597
      6 N          62.7766   88.7515   16.7648 N.ar    1  UNL1       -0.1291
      7 C          64.3717   90.5424   13.7129 C.ar    1  UNL1        0.0845
      8 C          65.5934   91.3816   13.9441 C.ar    1  UNL1        0.0201
      9 C          66.0789   92.3109   12.8715 C.ar    1  UNL1        0.0129
     10 C          65.3428   92.4011   11.5677 C.ar    1  UNL1        0.0578
     11 CL         65.8284   93.3305   10.4951 Cl      1  UNL1       -0.0822
     12 C          64.1212   91.5620   11.3365 C.ar    1  UNL1        0.0129
     13 C          63.6356   90.6327   12.4091 C.ar    1  UNL1        0.0201
     14 O          62.5308   85.2048   16.0763 O.3     1  UNL1       -0.4277
     15 O          63.7767   83.0471   15.3398 O.2     1  UNL1       -0.2261
     16 C          62.9186   84.2305   15.0036 C.2     1  UNL1        0.4058
     17 N          62.4482   84.4398   13.5947 N.am    1  UNL1       -0.2499
     18 H          61.8850   85.2165   13.3740 H       1  UNL1        0.1582
     19 C          62.8360   83.4656   12.5220 C.ar    1  UNL1        0.0532
     20 C          63.6720   83.9202   11.3626 C.ar    1  UNL1        0.0148
     21 C          64.0597   82.9460   10.2899 C.ar    1  UNL1        0.0013
     22 C          63.6115   81.5172   10.3768 C.ar    1  UNL1        0.0001
     23 C          62.7755   81.0625   11.5363 C.ar    1  UNL1        0.0013
     24 C          62.3878   82.0367   12.6089 C.ar    1  UNL1        0.0148
@<TRIPOS>BOND
     1    15    16    2
     2    16    17   am
     3    17    19    1
     4    19    20   ar
     5    20    21   ar
     6    21    22   ar
     7    22    23   ar
     8    23    24   ar
     9    16    14    1
    10    14     1    1
    11     1     2    1
    12     2     3   ar
    13     3     4   ar
    14     4     7    1
    15     7     8   ar
    16     8     9   ar
    17     9    10   ar
    18    10    11    1
    19    10    12   ar
    20    12    13   ar
    21     4     5   ar
    22     5     6   ar
    23    24    19   ar
    24     6     2   ar
    25    13     7   ar
    26    17    18    1
@<TRIPOS>MOLECULE
*****
 24 26 0 0 0
SMALL
GASTEIGER

@<TRIPOS>ATOM
      1 C          63.7364   81.5654   13.2228 C.3     1  UNL1        0.2590
      2 C          63.6522   82.5725   12.1144 C.ar    1  UNL1        0.1451
      3 C          62.7003   83.7297   12.0450 C.ar    1  UNL1        0.1222
      4 N          62.9649   84.4716   10.7685 N.ar    1  UNL1       -0.2091
      5 N          64.0804   83.7729   10.0490 N.ar    1  UNL1       -0.0597
      6 N          64.5051   82.5992   10.8808 N.ar    1  UNL1       -0.1291
      7 C          62.2411   85.6970   10.2946 C.ar    1  UNL1        0.0845
      8 C          62.2469   86.9420   11.1312 C.ar    1  UNL1        0.0201
      9 C          61.5231   88.1674   10.6574 C.ar    1  UNL1        0.0129
     10 C          60.7936   88.1479    9.3470 C.ar    1  UNL1        0.0578
     11 CL         60.0698   89.3732    8.8731 Cl      1  UNL1       -0.0822
     12 C          60.7878   86.9028    8.5103 C.ar    1  UNL1        0.0129
     13 C          61.5116   85.6774    8.9842 C.ar    1  UNL1        0.0201
     14 O          63.8938   82.0239   14.6423 O.3     1  UNL1       -0.4277
     15 O          62.0134   83.7265   15.2039 O.2     1  UNL1       -0.2261
     16 C          63.4695   83.4080   15.0349 C.2     1  UNL1        0.4058
     17 N          64.5011   84.4737   15.2584 N.am    1  UNL1       -0.2499
     18 H          65.4568   84.2647   15.1474 H       1  UNL1        0.1582
     19 C          64.0767   85.8579   15.6509 C.ar    1  UNL1        0.0532
     20 C          64.4053   87.0227   14.7648 C.ar    1  UNL1        0.0148
     21 C          63.9810   88.4068   15.1574 C.ar    1  UNL1        0.0013
     22 C          63.2280   88.6261   16.4361 C.ar    1  UNL1        0.0001
     23 C          62.8994   87.4613   17.3222 C.ar    1  UNL1        0.0013
     24 C          63.3238   86.0772   16.9296 C.ar    1  UNL1        0.0148
@<TRIPOS>BOND
     1    15    16    2
     2    16    17   am
     3    17    19    1
     4    19    20   ar
     5    20    21   ar
     6    21    22   ar
     7    22    23   ar
     8    23    24   ar
     9    16    14    1
    10    14     1    1
    11     1     2    1
    12     2     3   ar
    13     3     4   ar
    14     4     7    1
    15     7     8   ar
    16     8     9   ar
    17     9    10   ar
    18    10    11    1
    19    10    12   ar
    20    12    13   ar
    21     4     5   ar
    22     5     6   ar
    23    24    19   ar
    24     6     2   ar
    25    13     7   ar
    26    17    18    1
@<TRIPOS>MOLECULE
*****
 24 26 0 0 0
SMALL
GASTEIGER

@<TRIPOS>ATOM
      1 C          63.5923   85.6405   16.3345 C.3     1  UNL1        0.2590
      2 C          63.5382   87.1107   16.0421 C.ar    1  UNL1        0.1451
      3 C          64.2547   87.8151   14.9283 C.ar    1  UNL1        0.1222
      4 N          63.9174   89.2744   15.0099 N.ar    1  UNL1       -0.2091
      5 N          62.9924   89.4719   16.1742 N.ar    1  UNL1       -0.0597
      6 N          62.7581   88.1346   16.8120 N.ar    1  UNL1       -0.1291
      7 C          64.4173   90.3477   14.0890 C.ar    1  UNL1        0.0845
      8 C          65.5745   91.2093   14.4998 C.ar    1  UNL1        0.0201
      9 C          66.0744   92.2827   13.5789 C.ar    1  UNL1        0.0129
     10 C          65.4172   92.4944   12.2473 C.ar    1  UNL1        0.0578
     11 CL         65.9171   93.5678   11.3264 Cl      1  UNL1       -0.0822
     12 C          64.2600   91.6328   11.8366 C.ar    1  UNL1        0.0129
     13 C          63.7601   90.5595   12.7575 C.ar    1  UNL1        0.0201
     14 O          62.9163   84.6675   15.4147 O.3     1  UNL1       -0.4277
     15 O          64.5600   84.2385   13.4489 O.2     1  UNL1       -0.2261
     16 C          63.2185   84.6901   13.9456 C.2     1  UNL1        0.4058
     17 N          62.1794   85.1641   12.9732 N.am    1  UNL1       -0.2499
     18 H          61.2990   85.4605   13.2992 H       1  UNL1        0.1582
     19 C          62.4817   85.1867   11.5041 C.ar    1  UNL1        0.0532
     20 C          62.0591   86.3591   10.6694 C.ar    1  UNL1        0.0148
     21 C          62.3614   86.3816    9.2004 C.ar    1  UNL1        0.0013
     22 C          63.0863   85.2317    8.5661 C.ar    1  UNL1        0.0001
     23 C          63.5089   84.0593    9.4008 C.ar    1  UNL1        0.0013
     24 C          63.2066   84.0368   10.8699 C.ar    1  UNL1        0.0148
@<TRIPOS>BOND
     1    15    16    2
     2    16    17   am
     3    17    19    1
     4    19    20   ar
     5    20    21   ar
     6    21    22   ar
     7    22    23   ar
     8    23    24   ar
     9    16    14    1
    10    14     1    1
    11     1     2    1
    12     2     3   ar
    13     3     4   ar
    14     4     7    1
    15     7     8   ar
    16     8     9   ar
    17     9    10   ar
    18    10    11    1
    19    10    12   ar
    20    12    13   ar
    21     4     5   ar
    22     5     6   ar
    23    24    19   ar
    24     6     2   ar
    25    13     7   ar
    26    17    18    1
@<TRIPOS>MOLECULE
*****
 24 26 0 0 0
SMALL
GASTEIGER

@<TRIPOS>ATOM
      1 C          64.6963   90.9131   14.8396 C.3     1  UNL1        0.2590
      2 C          64.2396   89.6859   14.1080 C.ar    1  UNL1        0.1451
      3 C          64.3852   88.2706   14.5833 C.ar    1  UNL1        0.1222
      4 N          63.7927   87.3685   13.5417 N.ar    1  UNL1       -0.2091
      5 N          63.2808   88.2262   12.4226 N.ar    1  UNL1       -0.0597
      6 N          63.5570   89.6584   12.7726 N.ar    1  UNL1       -0.1291
      7 C          63.7241   85.8715   13.6075 C.ar    1  UNL1        0.0845
      8 C          64.4114   85.1375   14.7205 C.ar    1  UNL1        0.0201
      9 C          64.3428   83.6405   14.7864 C.ar    1  UNL1        0.0129
     10 C          63.5869   82.8776   13.7393 C.ar    1  UNL1        0.0578
     11 CL         63.5182   81.3806   13.8052 Cl      1  UNL1       -0.0822
     12 C          62.8995   83.6116   12.6263 C.ar    1  UNL1        0.0129
     13 C          62.9682   85.1086   12.5605 C.ar    1  UNL1        0.0201
     14 O          66.1500   91.2824   14.8501 O.3     1  UNL1       -0.4277
     15 O          67.9418   92.9574   13.9934 O.2     1  UNL1       -0.2261
     16 C          66.7174   92.1265   13.7475 C.2     1  UNL1        0.4058
     17 N          66.0605   92.1397   12.3992 N.am    1  UNL1       -0.2499
     18 H          65.2569   91.5944   12.2378 H       1  UNL1        0.1582
     19 C          66.6279   92.9838   11.2966 C.ar    1  UNL1        0.0532
     20 C          67.5444   92.3716   10.2792 C.ar    1  UNL1        0.0148
     21 C          68.1117   93.2157    9.1767 C.ar    1  UNL1        0.0013
     22 C          67.7626   94.6721    9.0916 C.ar    1  UNL1        0.0001
     23 C          66.8461   95.2843   10.1090 C.ar    1  UNL1        0.0013
     24 C          66.2787   94.4402   11.2115 C.ar    1  UNL1        0.0148
@<TRIPOS>BOND
     1    15    16    2
     2    16    17   am
     3    17    19    1
     4    19    20   ar
     5    20    21   ar
     6    21    22   ar
     7    22    23   ar
     8    23    24   ar
     9    16    14    1
    10    14     1    1
    11     1     2    1
    12     2     3   ar
    13     3     4   ar
    14     4     7    1
    15     7     8   ar
    16     8     9   ar
    17     9    10   ar
    18    10    11    1
    19    10    12   ar
    20    12    13   ar
    21     4     5   ar
    22     5     6   ar
    23    24    19   ar
    24     6     2   ar
    25    13     7   ar
    26    17    18    1
@<TRIPOS>MOLECULE
*****
 24 26 0 0 0
SMALL
GASTEIGER

@<TRIPOS>ATOM
      1 C          63.1598   86.6300   17.0468 C.3     1  UNL1        0.2590
      2 C          63.7380   85.8696   15.8904 C.ar    1  UNL1        0.1451
      3 C          63.0487   84.7869   15.1140 C.ar    1  UNL1        0.1222
      4 N          63.9917   84.3066   14.0510 N.ar    1  UNL1       -0.2091
      5 N          65.2639   85.0924   14.1704 N.ar    1  UNL1       -0.0597
      6 N          65.1070   86.0584   15.3072 N.ar    1  UNL1       -0.1291
      7 C          63.7118   83.2295   13.0453 C.ar    1  UNL1        0.0845
      8 C          64.2000   83.3755   11.6345 C.ar    1  UNL1        0.0201
      9 C          63.9201   82.2985   10.6287 C.ar    1  UNL1        0.0129
     10 C          63.1520   81.0754   11.0337 C.ar    1  UNL1        0.0578
     11 CL         62.8721   79.9984   10.0279 Cl      1  UNL1       -0.0822
     12 C          62.6638   80.9294   12.4445 C.ar    1  UNL1        0.0129
     13 C          62.9437   82.0065   13.4502 C.ar    1  UNL1        0.0201
     14 O          62.4120   87.9077   16.8055 O.3     1  UNL1       -0.4277
     15 O          63.1998   90.3834   16.8157 O.2     1  UNL1       -0.2261
     16 C          63.0920   89.0574   16.1229 C.2     1  UNL1        0.4058
     17 N          63.6642   88.8810   14.7477 N.am    1  UNL1       -0.2499
     18 H          63.5934   88.0106   14.2930 H       1  UNL1        0.1582
     19 C          64.3442   90.0307   14.0651 C.ar    1  UNL1        0.0532
     20 C          65.5988   90.6122   14.6463 C.ar    1  UNL1        0.0148
     21 C          66.2787   91.7618   13.9637 C.ar    1  UNL1        0.0013
     22 C          65.7042   92.3299   12.6999 C.ar    1  UNL1        0.0001
     23 C          64.4496   91.7483   12.1187 C.ar    1  UNL1        0.0013
     24 C          63.7697   90.5987   12.8013 C.ar    1  UNL1        0.0148
@<TRIPOS>BOND
     1    15    16    2
     2    16    17   am
     3    17    19    1
     4    19    20   ar
     5    20    21   ar
     6    21    22   ar
     7    22    23   ar
     8    23    24   ar
     9    16    14    1
    10    14     1    1
    11     1     2    1
    12     2     3   ar
    13     3     4   ar
    14     4     7    1
    15     7     8   ar
    16     8     9   ar
    17     9    10   ar
    18    10    11    1
    19    10    12   ar
    20    12    13   ar
    21     4     5   ar
    22     5     6   ar
    23    24    19   ar
    24     6     2   ar
    25    13     7   ar
    26    17    18    1
@<TRIPOS>MOLECULE
*****
 24 26 0 0 0
SMALL
GASTEIGER

@<TRIPOS>ATOM
      1 C          62.7348   89.4647   11.1364 C.3     1  UNL1        0.2590
      2 C          63.0000   88.2510   11.9768 C.ar    1  UNL1        0.1451
      3 C          62.5778   86.8476   11.6570 C.ar    1  UNL1        0.1222
      4 N          63.0509   85.9568   12.7672 N.ar    1  UNL1       -0.2091
      5 N          63.7655   86.8097   13.7732 N.ar    1  UNL1       -0.0597
      6 N          63.7340   88.2275   13.2847 N.ar    1  UNL1       -0.1291
      7 C          62.8454   84.4736   12.8559 C.ar    1  UNL1        0.0845
      8 C          63.0166   83.6184   11.6355 C.ar    1  UNL1        0.0201
      9 C          62.8111   82.1352   11.7242 C.ar    1  UNL1        0.0129
     10 C          62.4345   81.5071   13.0332 C.ar    1  UNL1        0.0578
     11 CL         62.2291   80.0239   13.1219 Cl      1  UNL1       -0.0822
     12 C          62.2634   82.3623   14.2536 C.ar    1  UNL1        0.0129
     13 C          62.4688   83.8455   14.1649 C.ar    1  UNL1        0.0201
     14 O          62.7605   90.8288   11.7597 O.3     1  UNL1       -0.4277
     15 O          64.9628   92.1644   11.4190 O.2     1  UNL1       -0.2261
     16 C          64.0440   91.3791   12.3073 C.2     1  UNL1        0.4058
     17 N          64.4086   91.1443   13.7432 N.am    1  UNL1       -0.2499
     18 H          63.8055   90.6289   14.3263 H       1  UNL1        0.1582
     19 C          65.6921   91.6946   14.2908 C.ar    1  UNL1        0.0532
     20 C          66.9374   91.6662   13.4551 C.ar    1  UNL1        0.0148
     21 C          68.2208   92.2165   14.0028 C.ar    1  UNL1        0.0013
     22 C          68.2589   92.7953   15.3861 C.ar    1  UNL1        0.0001
     23 C          67.0137   92.8237   16.2218 C.ar    1  UNL1        0.0013
     24 C          65.7302   92.2734   15.6741 C.ar    1  UNL1        0.0148
@<TRIPOS>BOND
     1    15    16    2
     2    16    17   am
     3    17    19    1
     4    19    20   ar
     5    20    21   ar
     6    21    22   ar
     7    22    23   ar
     8    23    24   ar
     9    16    14    1
    10    14     1    1
    11     1     2    1
    12     2     3   ar
    13     3     4   ar
    14     4     7    1
    15     7     8   ar
    16     8     9   ar
    17     9    10   ar
    18    10    11    1
    19    10    12   ar
    20    12    13   ar
    21     4     5   ar
    22     5     6   ar
    23    24    19   ar
    24     6     2   ar
    25    13     7   ar
    26    17    18    1
@<TRIPOS>MOLECULE
*****
 24 26 0 0 0
SMALL
GASTEIGER

@<TRIPOS>ATOM
      1 C          60.3097   88.9302   11.4087 C.3     1  UNL1        0.2590
      2 C          61.5488   89.7729   11.3410 C.ar    1  UNL1        0.1451
      3 C          62.4354   90.1315   12.4966 C.ar    1  UNL1        0.1222
      4 N          63.5533   90.9852   11.9757 N.ar    1  UNL1       -0.2091
      5 N          63.3576   91.1542   10.4981 N.ar    1  UNL1       -0.0597
      6 N          62.1187   90.4050   10.1059 N.ar    1  UNL1       -0.1291
      7 C          64.6707   91.5676   12.7894 C.ar    1  UNL1        0.0845
      8 C          65.4176   92.7678   12.2874 C.ar    1  UNL1        0.0201
      9 C          66.5350   93.3502   13.1011 C.ar    1  UNL1        0.0129
     10 C          66.9056   92.7326   14.4167 C.ar    1  UNL1        0.0578
     11 CL         68.0230   93.3150   15.2304 Cl      1  UNL1       -0.0822
     12 C          66.1588   91.5324   14.9187 C.ar    1  UNL1        0.0129
     13 C          65.0414   90.9500   14.1050 C.ar    1  UNL1        0.0201
     14 O          60.0360   87.9121   10.3417 O.3     1  UNL1       -0.4277
     15 O          60.9440   85.9031    8.9671 O.2     1  UNL1       -0.2261
     16 C          60.8790   86.6746   10.2518 C.2     1  UNL1        0.4058
     17 N          61.6570   86.2088   11.4466 N.am    1  UNL1       -0.2499
     18 H          61.6144   86.7152   12.2898 H       1  UNL1        0.1582
     19 C          62.5000   84.9713   11.3568 C.ar    1  UNL1        0.0532
     20 C          62.6715   84.0916   12.5595 C.ar    1  UNL1        0.0148
     21 C          63.5144   82.8542   12.4696 C.ar    1  UNL1        0.0013
     22 C          64.1860   82.4964   11.1769 C.ar    1  UNL1        0.0001
     23 C          64.0146   83.3761    9.9742 C.ar    1  UNL1        0.0013
     24 C          63.1716   84.6136   10.0641 C.ar    1  UNL1        0.0148
@<TRIPOS>BOND
     1    15    16    2
     2    16    17   am
     3    17    19    1
     4    19    20   ar
     5    20    21   ar
     6    21    22   ar
     7    22    23   ar
     8    23    24   ar
     9    16    14    1
    10    14     1    1
    11     1     2    1
    12     2     3   ar
    13     3     4   ar
    14     4     7    1
    15     7     8   ar
    16     8     9   ar
    17     9    10   ar
    18    10    11    1
    19    10    12   ar
    20    12    13   ar
    21     4     5   ar
    22     5     6   ar
    23    24    19   ar
    24     6     2   ar
    25    13     7   ar
    26    17    18    1
