@<TRIPOS>MOLECULE
*****
 28 31 0 0 0
SMALL
GASTEIGER

@<TRIPOS>ATOM
      1 C          63.6468   89.7111   13.3347 C.ar    1  UNL1        0.0028
      2 C          63.8345   88.2264   13.4358 C.ar    1  UNL1        0.0002
      3 C          63.1964   87.3193   12.4259 C.ar    1  UNL1        0.0029
      4 C          62.3707   87.8970   11.3148 C.ar    1  UNL1        0.0347
      5 C          61.7326   86.9898   10.3048 C.ar    1  UNL1        0.1501
      6 N          60.9069   87.5675    9.1938 N.ar    1  UNL1       -0.1331
      7 N          60.7192   89.0523    9.0927 N.ar    1  UNL1       -0.1452
      8 C          61.3573   89.9594   10.1026 C.ar    1  UNL1        0.1222
      9 C          62.1830   89.3817   11.2137 C.ar    1  UNL1        0.0237
     10 C          62.8210   90.2888   12.2237 C.ar    1  UNL1        0.0018
     11 C          67.1382   93.1956   14.2572 C.ar    1  UNL1        0.1705
     12 N          67.1717   92.7646   12.8209 N.ar    1  UNL1       -0.0621
     13 O          66.1059   91.7278   12.6232 O.2     1  UNL1       -0.3522
     14 C          65.4137   91.5181   13.9373 C.ar    1  UNL1        0.1777
     15 C          64.2848   90.6183   14.3447 C.ar    1  UNL1        0.0333
     16 C          63.7940   90.6256   15.7621 C.ar    1  UNL1       -0.0188
     17 C          62.6652   89.7258   16.1696 C.3     1  UNL1        0.0311
     18 C          64.4321   91.5328   16.7721 C.ar    1  UNL1       -0.0040
     19 C          65.5609   92.4326   16.3646 C.ar    1  UNL1        0.0057
     20 C          66.0517   92.4252   14.9472 C.ar    1  UNL1        0.0717
     21 C          68.9862   93.8097   15.9771 C.3     1  UNL1        0.1097
     22 N          68.0340   94.2176   14.8921 N.pl3   1  UNL1       -0.3140
     23 H          67.9970   95.1560   14.5968 H       1  UNL1        0.1483
     24 N          61.9203   85.5051   10.4059 N.pl3   1  UNL1       -0.3183
     25 H          61.3798   84.9827   11.0417 H       1  UNL1        0.1482
     26 C          62.9317   84.8161    9.5384 C.3     1  UNL1        0.0705
     27 C          63.0869   85.2197    8.1020 C.3     1  UNL1        0.0212
     28 C          63.7878   83.7237   10.1072 C.3     1  UNL1        0.0212
@<TRIPOS>BOND
     1    21    22    1
     2    22    11    1
     3    11    12   ar
     4    12    13   ar
     5    13    14   ar
     6    14    15   ar
     7    15     1    1
     8     1     2   ar
     9     2     3   ar
    10     3     4   ar
    11     4     5   ar
    12     5    24    1
    13    24    26    1
    14    26    27    1
    15    26    28    1
    16     5     6   ar
    17     6     7   ar
    18     7     8   ar
    19     8     9   ar
    20     9    10   ar
    21    15    16   ar
    22    16    17    1
    23    16    18   ar
    24    18    19   ar
    25    19    20   ar
    26    20    11   ar
    27    20    14   ar
    28    10     1   ar
    29     9     4   ar
    30    22    23    1
    31    24    25    1
@<TRIPOS>MOLECULE
*****
 28 31 0 0 0
SMALL
GASTEIGER

@<TRIPOS>ATOM
      1 C          62.3545   86.3030   11.2800 C.ar    1  UNL1        0.0028
      2 C          62.5587   85.0258   10.5204 C.ar    1  UNL1        0.0002
      3 C          63.0920   83.8126   11.2230 C.ar    1  UNL1        0.0029
      4 C          63.4209   83.8765   12.6851 C.ar    1  UNL1        0.0347
      5 C          63.9541   82.6631   13.3876 C.ar    1  UNL1        0.1501
      6 N          64.2831   82.7271   14.8497 N.ar    1  UNL1       -0.1331
      7 N          64.0788   84.0044   15.6092 N.ar    1  UNL1       -0.1452
      8 C          63.5455   85.2176   14.9067 C.ar    1  UNL1        0.1222
      9 C          63.2166   85.1537   13.4446 C.ar    1  UNL1        0.0237
     10 C          62.6834   86.3670   12.7421 C.ar    1  UNL1        0.0018
     11 C          59.3841   88.1120    7.6623 C.ar    1  UNL1        0.1705
     12 N          59.3392   86.6132    7.6988 N.ar    1  UNL1       -0.0621
     13 O          60.2469   86.1490    8.7990 O.2     1  UNL1       -0.3522
     14 C          60.8528   87.3609    9.4425 C.ar    1  UNL1        0.1777
     15 C          61.8212   87.5164   10.5774 C.ar    1  UNL1        0.0333
     16 C          62.2564   88.8852   11.0098 C.ar    1  UNL1       -0.0188
     17 C          63.2248   89.0407   12.1447 C.3     1  UNL1        0.0311
     18 C          61.7231   90.0986   10.3073 C.ar    1  UNL1       -0.0040
     19 C          60.7547   89.9430    9.1724 C.ar    1  UNL1        0.0057
     20 C          60.3196   88.5741    8.7400 C.ar    1  UNL1        0.0717
     21 C          59.3516   90.0421    5.9234 C.3     1  UNL1        0.1097
     22 N          58.6266   88.9940    6.7146 N.pl3   1  UNL1       -0.3140
     23 H          57.6536   88.8850    6.6118 H       1  UNL1        0.1483
     24 N          64.1584   81.3859   12.6280 N.pl3   1  UNL1       -0.3183
     25 H          65.0593   81.1349   12.3204 H       1  UNL1        0.1482
     26 C          62.9901   80.4912   12.3371 C.3     1  UNL1        0.0705
     27 C          62.8010   79.9286   10.9595 C.3     1  UNL1        0.0212
     28 C          62.0109   80.1592   13.4238 C.3     1  UNL1        0.0212
@<TRIPOS>BOND
     1    21    22    1
     2    22    11    1
     3    11    12   ar
     4    12    13   ar
     5    13    14   ar
     6    14    15   ar
     7    15     1    1
     8     1     2   ar
     9     2     3   ar
    10     3     4   ar
    11     4     5   ar
    12     5    24    1
    13    24    26    1
    14    26    27    1
    15    26    28    1
    16     5     6   ar
    17     6     7   ar
    18     7     8   ar
    19     8     9   ar
    20     9    10   ar
    21    15    16   ar
    22    16    17    1
    23    16    18   ar
    24    18    19   ar
    25    19    20   ar
    26    20    11   ar
    27    20    14   ar
    28    10     1   ar
    29     9     4   ar
    30    22    23    1
    31    24    25    1
@<TRIPOS>MOLECULE
*****
 28 31 0 0 0
SMALL
GASTEIGER

@<TRIPOS>ATOM
      1 C          63.6898   89.7163   12.3450 C.ar    1  UNL1        0.0028
      2 C          64.0621   89.8992   13.7865 C.ar    1  UNL1        0.0002
      3 C          64.8391   91.1094   14.2126 C.ar    1  UNL1        0.0029
      4 C          65.2438   92.1366   13.1973 C.ar    1  UNL1        0.0347
      5 C          66.0209   93.3469   13.6234 C.ar    1  UNL1        0.1501
      6 N          66.4256   94.3742   12.6081 N.ar    1  UNL1       -0.1331
      7 N          66.0532   94.1912   11.1666 N.ar    1  UNL1       -0.1452
      8 C          65.2762   92.9810   10.7405 C.ar    1  UNL1        0.1222
      9 C          64.8715   91.9537   11.7558 C.ar    1  UNL1        0.0237
     10 C          64.0945   90.7436   11.3297 C.ar    1  UNL1        0.0018
     11 C          62.8812   84.8005   12.9485 C.ar    1  UNL1        0.1705
     12 N          63.9542   85.2891   13.8756 N.ar    1  UNL1       -0.0621
     13 O          64.1384   86.7586   13.6380 O.2     1  UNL1       -0.3522
     14 C          63.1791   87.1783   12.5639 C.ar    1  UNL1        0.1777
     15 C          62.9127   88.5060   11.9188 C.ar    1  UNL1        0.0333
     16 C          61.8693   88.6236   10.8476 C.ar    1  UNL1       -0.0188
     17 C          61.6030   89.9513   10.2026 C.3     1  UNL1        0.0311
     18 C          61.0923   87.4133   10.4214 C.ar    1  UNL1       -0.0040
     19 C          61.3586   86.0856   11.0665 C.ar    1  UNL1        0.0057
     20 C          62.4021   85.9681   12.1378 C.ar    1  UNL1        0.0717
     21 C          62.4354   82.4877   14.0449 C.3     1  UNL1        0.1097
     22 N          62.3758   83.3917   12.8494 N.pl3   1  UNL1       -0.3140
     23 H          62.0051   83.0604   11.9997 H       1  UNL1        0.1483
     24 N          66.3932   93.5298   15.0649 N.pl3   1  UNL1       -0.3183
     25 H          65.7381   93.9007   15.6993 H       1  UNL1        0.1482
     26 C          67.7638   93.1476   15.5399 C.3     1  UNL1        0.0705
     27 C          68.7525   94.2123   15.9124 C.3     1  UNL1        0.0212
     28 C          68.1457   91.7006   15.6422 C.3     1  UNL1        0.0212
@<TRIPOS>BOND
     1    21    22    1
     2    22    11    1
     3    11    12   ar
     4    12    13   ar
     5    13    14   ar
     6    14    15   ar
     7    15     1    1
     8     1     2   ar
     9     2     3   ar
    10     3     4   ar
    11     4     5   ar
    12     5    24    1
    13    24    26    1
    14    26    27    1
    15    26    28    1
    16     5     6   ar
    17     6     7   ar
    18     7     8   ar
    19     8     9   ar
    20     9    10   ar
    21    15    16   ar
    22    16    17    1
    23    16    18   ar
    24    18    19   ar
    25    19    20   ar
    26    20    11   ar
    27    20    14   ar
    28    10     1   ar
    29     9     4   ar
    30    22    23    1
    31    24    25    1
@<TRIPOS>MOLECULE
*****
 28 31 0 0 0
SMALL
GASTEIGER

@<TRIPOS>ATOM
      1 C          63.6830   89.7837   12.3303 C.ar    1  UNL1        0.0028
      2 C          64.0619   89.9428   13.7729 C.ar    1  UNL1        0.0002
      3 C          64.8570   91.1365   14.2121 C.ar    1  UNL1        0.0029
      4 C          65.2732   92.1709   13.2088 C.ar    1  UNL1        0.0347
      5 C          66.0684   93.3646   13.6482 C.ar    1  UNL1        0.1501
      6 N          66.4847   94.3990   12.6448 N.ar    1  UNL1       -0.1331
      7 N          66.1057   94.2398   11.2022 N.ar    1  UNL1       -0.1452
      8 C          65.3106   93.0462   10.7629 C.ar    1  UNL1        0.1222
      9 C          64.8944   92.0117   11.7662 C.ar    1  UNL1        0.0237
     10 C          64.0993   90.8181   11.3270 C.ar    1  UNL1        0.0018
     11 C          60.1949   87.9575    9.2189 C.ar    1  UNL1        0.1705
     12 N          60.4323   89.4169    8.9671 N.ar    1  UNL1       -0.0621
     13 O          61.4814   89.8887    9.9298 O.2     1  UNL1       -0.3522
     14 C          61.8924   88.7208   10.7766 C.ar    1  UNL1        0.1777
     15 C          62.8879   88.5900   11.8910 C.ar    1  UNL1        0.0333
     16 C          63.0882   87.2656   12.5660 C.ar    1  UNL1       -0.0188
     17 C          64.0837   87.1347   13.6804 C.3     1  UNL1        0.0311
     18 C          62.2931   86.0719   12.1267 C.ar    1  UNL1       -0.0040
     19 C          61.2976   86.2027   11.0123 C.ar    1  UNL1        0.0057
     20 C          61.0972   87.5272   10.3373 C.ar    1  UNL1        0.0717
     21 C          59.7310   86.0341    7.5351 C.3     1  UNL1        0.1097
     22 N          59.2253   87.0819    8.4819 N.pl3   1  UNL1       -0.3140
     23 H          58.2571   87.1950    8.6195 H       1  UNL1        0.1483
     24 N          66.4473   93.5238   15.0907 N.pl3   1  UNL1       -0.3183
     25 H          65.7955   93.8856   15.7338 H       1  UNL1        0.1482
     26 C          67.8192   93.1316   15.5536 C.3     1  UNL1        0.0705
     27 C          68.8035   94.1874   15.9613 C.3     1  UNL1        0.0212
     28 C          68.2067   91.6836   15.6086 C.3     1  UNL1        0.0212
@<TRIPOS>BOND
     1    21    22    1
     2    22    11    1
     3    11    12   ar
     4    12    13   ar
     5    13    14   ar
     6    14    15   ar
     7    15     1    1
     8     1     2   ar
     9     2     3   ar
    10     3     4   ar
    11     4     5   ar
    12     5    24    1
    13    24    26    1
    14    26    27    1
    15    26    28    1
    16     5     6   ar
    17     6     7   ar
    18     7     8   ar
    19     8     9   ar
    20     9    10   ar
    21    15    16   ar
    22    16    17    1
    23    16    18   ar
    24    18    19   ar
    25    19    20   ar
    26    20    11   ar
    27    20    14   ar
    28    10     1   ar
    29     9     4   ar
    30    22    23    1
    31    24    25    1
@<TRIPOS>MOLECULE
*****
 28 31 0 0 0
SMALL
GASTEIGER

@<TRIPOS>ATOM
      1 C          63.4162   89.6601   11.7069 C.ar    1  UNL1        0.0028
      2 C          63.5738   90.6370   10.5796 C.ar    1  UNL1        0.0002
      3 C          64.2986   91.9309   10.8043 C.ar    1  UNL1        0.0029
      4 C          64.8657   92.2479   12.1563 C.ar    1  UNL1        0.0347
      5 C          65.5905   93.5418   12.3810 C.ar    1  UNL1        0.1501
      6 N          66.1577   93.8588   13.7330 N.ar    1  UNL1       -0.1331
      7 N          66.0000   92.8819   14.8603 N.ar    1  UNL1       -0.1452
      8 C          65.2752   91.5880   14.6356 C.ar    1  UNL1        0.1222
      9 C          64.7081   91.2710   13.2836 C.ar    1  UNL1        0.0237
     10 C          63.9833   89.9771   13.0589 C.ar    1  UNL1        0.0018
     11 C          62.8193   84.8711   13.0822 C.ar    1  UNL1        0.1705
     12 N          63.8711   85.5444   13.9129 N.ar    1  UNL1       -0.0621
     13 O          63.9920   86.9646   13.4457 O.2     1  UNL1       -0.3522
     14 C          63.0148   87.1690   12.3261 C.ar    1  UNL1        0.1777
     15 C          62.6914   88.3662   11.4822 C.ar    1  UNL1        0.0333
     16 C          61.6432   88.2694   10.4136 C.ar    1  UNL1       -0.0188
     17 C          61.3197   89.4666    9.5697 C.3     1  UNL1        0.0311
     18 C          60.9184   86.9754   10.1889 C.ar    1  UNL1       -0.0040
     19 C          61.2418   85.7783   11.0329 C.ar    1  UNL1        0.0057
     20 C          62.2901   85.8751   12.1015 C.ar    1  UNL1        0.0717
     21 C          62.3399   82.7871   14.5577 C.3     1  UNL1        0.1097
     22 N          62.3748   83.4442   13.2097 N.pl3   1  UNL1       -0.3140
     23 H          62.1058   82.9389   12.4087 H       1  UNL1        0.1483
     24 N          65.7482   94.5187   11.2537 N.pl3   1  UNL1       -0.3183
     25 H          65.1189   95.2702   11.1620 H       1  UNL1        0.1482
     26 C          66.8647   94.3506   10.2662 C.3     1  UNL1        0.0705
     27 C          67.5486   93.0230   10.1262 C.3     1  UNL1        0.0212
     28 C          67.2974   95.5102    9.4187 C.3     1  UNL1        0.0212
@<TRIPOS>BOND
     1    21    22    1
     2    22    11    1
     3    11    12   ar
     4    12    13   ar
     5    13    14   ar
     6    14    15   ar
     7    15     1    1
     8     1     2   ar
     9     2     3   ar
    10     3     4   ar
    11     4     5   ar
    12     5    24    1
    13    24    26    1
    14    26    27    1
    15    26    28    1
    16     5     6   ar
    17     6     7   ar
    18     7     8   ar
    19     8     9   ar
    20     9    10   ar
    21    15    16   ar
    22    16    17    1
    23    16    18   ar
    24    18    19   ar
    25    19    20   ar
    26    20    11   ar
    27    20    14   ar
    28    10     1   ar
    29     9     4   ar
    30    22    23    1
    31    24    25    1
@<TRIPOS>MOLECULE
*****
 28 31 0 0 0
SMALL
GASTEIGER

@<TRIPOS>ATOM
      1 C          64.0591   89.1800   14.2966 C.ar    1  UNL1        0.0028
      2 C          65.1308   90.1491   14.6993 C.ar    1  UNL1        0.0002
      3 C          65.4936   91.2862   13.7909 C.ar    1  UNL1        0.0029
      4 C          64.7847   91.4542   12.4797 C.ar    1  UNL1        0.0347
      5 C          65.1476   92.5913   11.5712 C.ar    1  UNL1        0.1501
      6 N          64.4387   92.7593   10.2600 N.ar    1  UNL1       -0.1331
      7 N          63.3669   91.7901    9.8573 N.ar    1  UNL1       -0.1452
      8 C          63.0041   90.6530   10.7657 C.ar    1  UNL1        0.1222
      9 C          63.7130   90.4850   12.0769 C.ar    1  UNL1        0.0237
     10 C          63.3502   89.3480   12.9854 C.ar    1  UNL1        0.0018
     11 C          63.5932   84.2144   14.8520 C.ar    1  UNL1        0.1705
     12 N          64.0657   84.5614   13.4714 N.ar    1  UNL1       -0.0621
     13 O          64.1803   86.0543   13.3823 O.2     1  UNL1       -0.3522
     14 C          63.7786   86.6300   14.7078 C.ar    1  UNL1        0.1777
     15 C          63.6963   88.0428   15.2051 C.ar    1  UNL1        0.0333
     16 C          63.2511   88.3185   16.6107 C.ar    1  UNL1       -0.0188
     17 C          63.1688   89.7312   17.1079 C.3     1  UNL1        0.0311
     18 C          62.8883   87.1813   17.5192 C.ar    1  UNL1       -0.0040
     19 C          62.9706   85.7685   17.0219 C.ar    1  UNL1        0.0057
     20 C          63.4157   85.4929   15.6162 C.ar    1  UNL1        0.0717
     21 C          62.4999   81.8723   14.5891 C.3     1  UNL1        0.1097
     22 N          63.3422   82.8317   15.3765 N.pl3   1  UNL1       -0.3140
     23 H          63.7304   82.5538   16.2375 H       1  UNL1        0.1483
     24 N          66.2193   93.5605   11.9739 N.pl3   1  UNL1       -0.3183
     25 H          66.6860   93.4489   12.8335 H       1  UNL1        0.1482
     26 C          66.5798   94.6996   11.0670 C.3     1  UNL1        0.0705
     27 C          66.1079   96.0879   11.3827 C.3     1  UNL1        0.0212
     28 C          67.4122   94.4502    9.8443 C.3     1  UNL1        0.0212
@<TRIPOS>BOND
     1    21    22    1
     2    22    11    1
     3    11    12   ar
     4    12    13   ar
     5    13    14   ar
     6    14    15   ar
     7    15     1    1
     8     1     2   ar
     9     2     3   ar
    10     3     4   ar
    11     4     5   ar
    12     5    24    1
    13    24    26    1
    14    26    27    1
    15    26    28    1
    16     5     6   ar
    17     6     7   ar
    18     7     8   ar
    19     8     9   ar
    20     9    10   ar
    21    15    16   ar
    22    16    17    1
    23    16    18   ar
    24    18    19   ar
    25    19    20   ar
    26    20    11   ar
    27    20    14   ar
    28    10     1   ar
    29     9     4   ar
    30    22    23    1
    31    24    25    1
@<TRIPOS>MOLECULE
*****
 28 31 0 0 0
SMALL
GASTEIGER

@<TRIPOS>ATOM
      1 C          63.8553   89.3493   13.7000 C.ar    1  UNL1        0.0028
      2 C          63.0991   89.7432   12.4660 C.ar    1  UNL1        0.0002
      3 C          62.5429   88.6867   11.5580 C.ar    1  UNL1        0.0029
      4 C          62.7430   87.2363   11.8840 C.ar    1  UNL1        0.0347
      5 C          62.1868   86.1798   10.9760 C.ar    1  UNL1        0.1501
      6 N          62.3869   84.7294   11.3020 N.ar    1  UNL1       -0.1331
      7 N          63.1432   84.3355   12.5362 N.ar    1  UNL1       -0.1452
      8 C          63.6993   85.3920   13.4442 C.ar    1  UNL1        0.1222
      9 C          63.4992   86.8424   13.1181 C.ar    1  UNL1        0.0237
     10 C          64.0554   87.8989   14.0261 C.ar    1  UNL1        0.0018
     11 C          67.2010   93.0377   14.3196 C.ar    1  UNL1        0.1705
     12 N          67.3279   92.4162   12.9604 N.ar    1  UNL1       -0.0621
     13 O          66.3011   91.3284   12.8504 O.2     1  UNL1       -0.3522
     14 C          65.5396   91.2776   14.1417 C.ar    1  UNL1        0.1777
     15 C          64.4115   90.4058   14.6081 C.ar    1  UNL1        0.0333
     16 C          63.8396   90.5905   15.9824 C.ar    1  UNL1       -0.0188
     17 C          62.7116   89.7187   16.4487 C.3     1  UNL1        0.0311
     18 C          64.3958   91.6470   16.8905 C.ar    1  UNL1       -0.0040
     19 C          65.5239   92.5188   16.4241 C.ar    1  UNL1        0.0057
     20 C          66.0958   92.3340   15.0497 C.ar    1  UNL1        0.0717
     21 C          68.9902   93.9206   15.9837 C.3     1  UNL1        0.1097
     22 N          68.0333   94.1651   14.8547 N.pl3   1  UNL1       -0.3140
     23 H          67.9514   95.0655   14.4650 H       1  UNL1        0.1483
     24 N          61.4306   86.5737    9.7419 N.pl3   1  UNL1       -0.3183
     25 H          60.7587   87.2920    9.7846 H       1  UNL1        0.1482
     26 C          61.6981   85.8731    8.4428 C.3     1  UNL1        0.0705
     27 C          63.0679   85.3382    8.1473 C.3     1  UNL1        0.0212
     28 C          60.5956   85.7076    7.4392 C.3     1  UNL1        0.0212
@<TRIPOS>BOND
     1    21    22    1
     2    22    11    1
     3    11    12   ar
     4    12    13   ar
     5    13    14   ar
     6    14    15   ar
     7    15     1    1
     8     1     2   ar
     9     2     3   ar
    10     3     4   ar
    11     4     5   ar
    12     5    24    1
    13    24    26    1
    14    26    27    1
    15    26    28    1
    16     5     6   ar
    17     6     7   ar
    18     7     8   ar
    19     8     9   ar
    20     9    10   ar
    21    15    16   ar
    22    16    17    1
    23    16    18   ar
    24    18    19   ar
    25    19    20   ar
    26    20    11   ar
    27    20    14   ar
    28    10     1   ar
    29     9     4   ar
    30    22    23    1
    31    24    25    1
@<TRIPOS>MOLECULE
*****
 28 31 0 0 0
SMALL
GASTEIGER

@<TRIPOS>ATOM
      1 C          62.5024   89.4506   10.8624 C.ar    1  UNL1        0.0028
      2 C          62.8787   88.9515   12.2259 C.ar    1  UNL1        0.0002
      3 C          63.8817   89.7036   13.0494 C.ar    1  UNL1        0.0029
      4 C          64.5084   90.9549   12.5094 C.ar    1  UNL1        0.0347
      5 C          65.5115   91.7070   13.3330 C.ar    1  UNL1        0.1501
      6 N          66.1381   92.9583   12.7930 N.ar    1  UNL1       -0.1331
      7 N          65.7617   93.4575   11.4294 N.ar    1  UNL1       -0.1452
      8 C          64.7587   92.7053   10.6059 C.ar    1  UNL1        0.1222
      9 C          64.1320   91.4540   11.1459 C.ar    1  UNL1        0.0237
     10 C          63.1290   90.7019   10.3224 C.ar    1  UNL1        0.0018
     11 C          61.6313   85.5968    7.7685 C.ar    1  UNL1        0.1705
     12 N          63.0723   85.6421    8.1823 N.ar    1  UNL1       -0.0621
     13 O          63.2542   86.8138    9.1011 O.2     1  UNL1       -0.3522
     14 C          61.9255   87.4926    9.2551 C.ar    1  UNL1        0.1777
     15 C          61.4993   88.6985   10.0388 C.ar    1  UNL1        0.0333
     16 C          60.0702   89.1522    9.9990 C.ar    1  UNL1       -0.0188
     17 C          59.6440   90.3581   10.7828 C.3     1  UNL1        0.0311
     18 C          59.0671   88.4001    9.1754 C.ar    1  UNL1       -0.0040
     19 C          59.4933   87.1942    8.3917 C.ar    1  UNL1        0.0057
     20 C          60.9225   86.7405    8.4315 C.ar    1  UNL1        0.0717
     21 C          61.7300   84.1535    5.6105 C.3     1  UNL1        0.1097
     22 N          61.0084   84.5854    6.8526 N.pl3   1  UNL1       -0.3140
     23 H          60.1260   84.2050    7.0666 H       1  UNL1        0.1483
     24 N          65.8878   91.2079   14.6965 N.pl3   1  UNL1       -0.3183
     25 H          66.0702   90.2507   14.8373 H       1  UNL1        0.1482
     26 C          65.9863   92.1671   15.8456 C.3     1  UNL1        0.0705
     27 C          67.2695   92.9000   16.1028 C.3     1  UNL1        0.0212
     28 C          64.8016   92.3933   16.7373 C.3     1  UNL1        0.0212
@<TRIPOS>BOND
     1    21    22    1
     2    22    11    1
     3    11    12   ar
     4    12    13   ar
     5    13    14   ar
     6    14    15   ar
     7    15     1    1
     8     1     2   ar
     9     2     3   ar
    10     3     4   ar
    11     4     5   ar
    12     5    24    1
    13    24    26    1
    14    26    27    1
    15    26    28    1
    16     5     6   ar
    17     6     7   ar
    18     7     8   ar
    19     8     9   ar
    20     9    10   ar
    21    15    16   ar
    22    16    17    1
    23    16    18   ar
    24    18    19   ar
    25    19    20   ar
    26    20    11   ar
    27    20    14   ar
    28    10     1   ar
    29     9     4   ar
    30    22    23    1
    31    24    25    1
@<TRIPOS>MOLECULE
*****
 28 31 0 0 0
SMALL
GASTEIGER

@<TRIPOS>ATOM
      1 C          63.4521   86.1370   13.5432 C.ar    1  UNL1        0.0028
      2 C          64.2233   86.6663   14.7158 C.ar    1  UNL1        0.0002
      3 C          64.5293   88.1316   14.8124 C.ar    1  UNL1        0.0029
      4 C          64.0641   89.0675   13.7365 C.ar    1  UNL1        0.0347
      5 C          64.3701   90.5328   13.8332 C.ar    1  UNL1        0.1501
      6 N          63.9048   91.4687   12.7572 N.ar    1  UNL1       -0.1331
      7 N          63.1336   90.9393   11.5846 N.ar    1  UNL1       -0.1452
      8 C          62.8276   89.4741   11.4880 C.ar    1  UNL1        0.1222
      9 C          63.2928   88.5382   12.5639 C.ar    1  UNL1        0.0237
     10 C          62.9869   87.0729   12.4673 C.ar    1  UNL1        0.0018
     11 C          63.4194   82.0198   10.6744 C.ar    1  UNL1        0.1705
     12 N          63.9344   83.2048    9.9125 N.ar    1  UNL1       -0.0621
     13 O          63.9145   84.3906   10.8309 O.2     1  UNL1       -0.3522
     14 C          63.3872   83.9385   12.1603 C.ar    1  UNL1        0.1777
     15 C          63.1461   84.6717   13.4465 C.ar    1  UNL1        0.0333
     16 C          62.5990   83.9397   14.6360 C.ar    1  UNL1       -0.0188
     17 C          62.3579   84.6729   15.9221 C.3     1  UNL1        0.0311
     18 C          62.2930   82.4744   14.5393 C.ar    1  UNL1       -0.0040
     19 C          62.5341   81.7411   13.2531 C.ar    1  UNL1        0.0057
     20 C          63.0812   82.4732   12.0636 C.ar    1  UNL1        0.0717
     21 C          62.8225   79.5192   11.0493 C.3     1  UNL1        0.1097
     22 N          63.2690   80.6261   10.1407 N.pl3   1  UNL1       -0.3140
     23 H          63.4633   80.4377    9.1941 H       1  UNL1        0.1483
     24 N          65.1413   91.0622   15.0057 N.pl3   1  UNL1       -0.3183
     25 H          64.8153   90.9043   15.9211 H       1  UNL1        0.1482
     26 C          66.4094   91.8321   14.7835 C.3     1  UNL1        0.0705
     27 C          67.0195   92.6134   15.9093 C.3     1  UNL1        0.0212
     28 C          67.0674   91.8206   13.4356 C.3     1  UNL1        0.0212
@<TRIPOS>BOND
     1    21    22    1
     2    22    11    1
     3    11    12   ar
     4    12    13   ar
     5    13    14   ar
     6    14    15   ar
     7    15     1    1
     8     1     2   ar
     9     2     3   ar
    10     3     4   ar
    11     4     5   ar
    12     5    24    1
    13    24    26    1
    14    26    27    1
    15    26    28    1
    16     5     6   ar
    17     6     7   ar
    18     7     8   ar
    19     8     9   ar
    20     9    10   ar
    21    15    16   ar
    22    16    17    1
    23    16    18   ar
    24    18    19   ar
    25    19    20   ar
    26    20    11   ar
    27    20    14   ar
    28    10     1   ar
    29     9     4   ar
    30    22    23    1
    31    24    25    1
