@<TRIPOS>MOLECULE
*****
 32 36 0 0 0
SMALL
GASTEIGER

@<TRIPOS>ATOM
      1 C          63.0046   90.9152   11.5919 C.3     1  UNL1        0.0749
      2 C          64.2891   91.6847   11.5031 C.3     1  UNL1        0.0444
      3 C          65.1815   91.7955   12.7036 C.ar    1  UNL1       -0.0101
      4 C          64.7894   91.1368   13.9930 C.ar    1  UNL1       -0.0091
      5 C          65.6818   91.2476   15.1935 C.ar    1  UNL1       -0.0032
      6 C          66.9663   92.0171   15.1047 C.ar    1  UNL1        0.0010
      7 C          67.3585   92.6757   13.8154 C.ar    1  UNL1        0.0142
      8 C          66.4661   92.5649   12.6149 C.ar    1  UNL1        0.0436
      9 C          63.5048   90.3674   14.0818 C.3     1  UNL1        0.0954
     10 N          62.6125   90.2566   12.8812 N.3     1  UNL1       -0.2934
     11 H          61.7091   90.6475   13.1487 H       1  UNL1        0.1236
     12 N          66.8582   93.2236   11.3255 N.pl3   1  UNL1       -0.3049
     13 C          67.6508   92.4618   10.3049 C.3     1  UNL1        0.1079
     14 C          68.0430   93.1204    9.0155 C.3     1  UNL1        0.0903
     15 N          67.6425   94.5409    8.7468 N.3     1  UNL1       -0.2946
     16 C          66.8500   95.3026    9.7674 C.3     1  UNL1        0.0903
     17 C          66.4579   94.6439   11.0568 C.3     1  UNL1        0.1079
     18 H          67.0894   94.5338    7.8899 H       1  UNL1        0.1233
     19 C          62.1122   90.8044   10.3913 C.3     1  UNL1        0.0886
     20 N          60.8391   90.0154   10.4734 N.3     1  UNL1       -0.2679
     21 C          60.7146   88.7138    9.7383 C.3     1  UNL1        0.0978
     22 C          59.9321   88.6461    8.4604 C.3     1  UNL1        0.0224
     23 C          59.8077   87.3445    7.7253 C.3     1  UNL1        0.0065
     24 C          60.4657   86.1107    8.2681 C.3     1  UNL1        0.0277
     25 C          61.2483   86.1784    9.5460 C.ar    1  UNL1       -0.0073
     26 C          61.9063   84.9446   10.0888 C.ar    1  UNL1       -0.0015
     27 C          62.6888   85.0124   11.3667 C.ar    1  UNL1        0.0203
     28 C          62.8133   86.3140   12.1018 C.ar    1  UNL1        0.0985
     29 N          62.1552   87.5478   11.5590 N.ar    1  UNL1       -0.2471
     30 C          61.3727   87.4800   10.2811 C.ar    1  UNL1        0.0695
     31 C          59.0428   89.6418   12.3129 C.3     1  UNL1        0.0188
     32 C          59.6904   90.5281   11.2906 C.3     1  UNL1        0.0725
@<TRIPOS>BOND
     1    31    32    1
     2    32    20    1
     3    20    19    1
     4     1    19    1
     5     1     2    1
     6     2     3    1
     7     3     4   ar
     8     4     5   ar
     9     5     6   ar
    10     6     7   ar
    11     7     8   ar
    12     8    12    1
    13    12    13    1
    14    13    14    1
    15    14    15    1
    16    15    16    1
    17    16    17    1
    18     4     9    1
    19     9    10    1
    20    21    20    1
    21    21    22    1
    22    22    23    1
    23    23    24    1
    24    24    25    1
    25    25    26   ar
    26    26    27   ar
    27    27    28   ar
    28    28    29   ar
    29    29    30   ar
    30    10     1    1
    31    30    21    1
    32     8     3   ar
    33    17    12    1
    34    30    25   ar
    35    15    18    1
    36    10    11    1
@<TRIPOS>MOLECULE
*****
 32 36 0 0 0
SMALL
GASTEIGER

@<TRIPOS>ATOM
      1 C          63.0982   90.4490   11.9050 C.3     1  UNL1        0.0749
      2 C          64.2281   91.4295   11.7961 C.3     1  UNL1        0.0444
      3 C          64.9778   91.8494   13.0255 C.ar    1  UNL1       -0.0101
      4 C          64.5976   91.2888   14.3639 C.ar    1  UNL1       -0.0091
      5 C          65.3474   91.7088   15.5933 C.ar    1  UNL1       -0.0032
      6 C          66.4773   92.6893   15.4844 C.ar    1  UNL1        0.0010
      7 C          66.8575   93.2499   14.1461 C.ar    1  UNL1        0.0142
      8 C          66.1078   92.8299   12.9166 C.ar    1  UNL1        0.0436
      9 C          63.4677   90.3083   14.4728 C.3     1  UNL1        0.0954
     10 N          62.7180   89.8884   13.2433 N.3     1  UNL1       -0.2934
     11 H          61.7396   90.1321   13.3975 H       1  UNL1        0.1236
     12 N          66.4880   93.3905   11.5783 N.pl3   1  UNL1       -0.3049
     13 C          67.3588   92.5946   10.6517 C.3     1  UNL1        0.1079
     14 C          67.7390   93.1552    9.3133 C.3     1  UNL1        0.0903
     15 N          67.2484   94.5117    8.9015 N.3     1  UNL1       -0.2946
     16 C          66.3776   95.3074    9.8281 C.3     1  UNL1        0.0903
     17 C          65.9974   94.7469   11.1664 C.3     1  UNL1        0.1079
     18 H          66.7204   94.3842    8.0382 H       1  UNL1        0.1233
     19 C          62.3484   90.0290   10.6755 C.3     1  UNL1        0.0886
     20 N          61.3076   88.9525   10.7629 N.3     1  UNL1       -0.2679
     21 C          61.5463   87.6236   10.1093 C.3     1  UNL1        0.0978
     22 C          61.0900   87.3883    8.7000 C.3     1  UNL1        0.0224
     23 C          61.3286   86.0594    8.0463 C.3     1  UNL1        0.0065
     24 C          62.0237   84.9660    8.8020 C.3     1  UNL1        0.0277
     25 C          62.4801   85.2013   10.2115 C.ar    1  UNL1       -0.0073
     26 C          63.1751   84.1078   10.9672 C.ar    1  UNL1       -0.0015
     27 C          63.6315   84.3431   12.3765 C.ar    1  UNL1        0.0203
     28 C          63.3928   85.6720   13.0302 C.ar    1  UNL1        0.0985
     29 N          62.6977   86.7655   12.2744 N.ar    1  UNL1       -0.2471
     30 C          62.2414   86.5301   10.8651 C.ar    1  UNL1        0.0695
     31 C          59.4009   90.5670   11.4756 C.3     1  UNL1        0.0188
     32 C          60.0280   89.2047   11.5040 C.3     1  UNL1        0.0725
@<TRIPOS>BOND
     1    31    32    1
     2    32    20    1
     3    20    19    1
     4     1    19    1
     5     1     2    1
     6     2     3    1
     7     3     4   ar
     8     4     5   ar
     9     5     6   ar
    10     6     7   ar
    11     7     8   ar
    12     8    12    1
    13    12    13    1
    14    13    14    1
    15    14    15    1
    16    15    16    1
    17    16    17    1
    18     4     9    1
    19     9    10    1
    20    21    20    1
    21    21    22    1
    22    22    23    1
    23    23    24    1
    24    24    25    1
    25    25    26   ar
    26    26    27   ar
    27    27    28   ar
    28    28    29   ar
    29    29    30   ar
    30    10     1    1
    31    30    21    1
    32     8     3   ar
    33    17    12    1
    34    30    25   ar
    35    15    18    1
    36    10    11    1
@<TRIPOS>MOLECULE
*****
 32 36 0 0 0
SMALL
GASTEIGER

@<TRIPOS>ATOM
      1 C          63.2210   90.8658   12.3763 C.3     1  UNL1        0.0749
      2 C          64.4582   91.6738   12.1188 C.3     1  UNL1        0.0444
      3 C          65.3747   92.0243   13.2533 C.ar    1  UNL1       -0.0101
      4 C          65.0539   91.5668   14.6453 C.ar    1  UNL1       -0.0091
      5 C          65.9705   91.9174   15.7799 C.ar    1  UNL1       -0.0032
      6 C          67.2077   92.7254   15.5224 C.ar    1  UNL1        0.0010
      7 C          67.5285   93.1828   14.1303 C.ar    1  UNL1        0.0142
      8 C          66.6120   92.8323   12.9958 C.ar    1  UNL1        0.0436
      9 C          63.8167   90.7588   14.9029 C.3     1  UNL1        0.0954
     10 N          62.9002   90.4083   13.7683 N.3     1  UNL1       -0.2934
     11 H          61.9841   90.7919   14.0006 H       1  UNL1        0.1236
     12 N          66.9328   93.2898   11.6037 N.pl3   1  UNL1       -0.3049
     13 C          67.7248   92.4050   10.6873 C.3     1  UNL1        0.1079
     14 C          68.0455   92.8625    9.2952 C.3     1  UNL1        0.0903
     15 N          67.5743   94.2048    8.8196 N.3     1  UNL1       -0.2946
     16 C          66.7823   95.0896    9.7361 C.3     1  UNL1        0.0903
     17 C          66.4616   94.6321   11.1281 C.3     1  UNL1        0.1079
     18 H          66.9946   94.0389    7.9969 H       1  UNL1        0.1233
     19 C          62.3045   90.5153   11.2417 C.3     1  UNL1        0.0886
     20 N          61.2502   89.4643   11.4265 N.3     1  UNL1       -0.2679
     21 C          61.4634   88.0839   10.8798 C.3     1  UNL1        0.0978
     22 C          62.3534   87.1190   11.6056 C.3     1  UNL1        0.0224
     23 C          62.5666   85.7385   11.0590 C.3     1  UNL1        0.0065
     24 C          61.8898   85.3229    9.7865 C.3     1  UNL1        0.0277
     25 C          60.9998   86.2879    9.0606 C.ar    1  UNL1       -0.0073
     26 C          60.3230   85.8723    7.7881 C.ar    1  UNL1       -0.0015
     27 C          59.4331   86.8372    7.0623 C.ar    1  UNL1        0.0203
     28 C          59.2199   88.2177    7.6090 C.ar    1  UNL1        0.0985
     29 N          59.8967   88.6333    8.8814 N.ar    1  UNL1       -0.2471
     30 C          60.7866   87.6683    9.6073 C.ar    1  UNL1        0.0695
     31 C          59.0420   90.8218   11.6027 C.3     1  UNL1        0.0188
     32 C          59.9827   89.7939   12.1579 C.3     1  UNL1        0.0725
@<TRIPOS>BOND
     1    31    32    1
     2    32    20    1
     3    20    19    1
     4     1    19    1
     5     1     2    1
     6     2     3    1
     7     3     4   ar
     8     4     5   ar
     9     5     6   ar
    10     6     7   ar
    11     7     8   ar
    12     8    12    1
    13    12    13    1
    14    13    14    1
    15    14    15    1
    16    15    16    1
    17    16    17    1
    18     4     9    1
    19     9    10    1
    20    21    20    1
    21    21    22    1
    22    22    23    1
    23    23    24    1
    24    24    25    1
    25    25    26   ar
    26    26    27   ar
    27    27    28   ar
    28    28    29   ar
    29    29    30   ar
    30    10     1    1
    31    30    21    1
    32     8     3   ar
    33    17    12    1
    34    30    25   ar
    35    15    18    1
    36    10    11    1
@<TRIPOS>MOLECULE
*****
 32 36 0 0 0
SMALL
GASTEIGER

@<TRIPOS>ATOM
      1 C          64.2968   86.4848   14.5515 C.3     1  UNL1        0.0749
      2 C          63.6837   85.9005   13.3136 C.3     1  UNL1        0.0444
      3 C          63.2871   84.4542   13.2840 C.ar    1  UNL1       -0.0101
      4 C          63.5035   83.5923   14.4924 C.ar    1  UNL1       -0.0091
      5 C          63.1068   82.1459   14.4627 C.ar    1  UNL1       -0.0032
      6 C          62.4938   81.5616   13.2247 C.ar    1  UNL1        0.0010
      7 C          62.2774   82.4235   12.0163 C.ar    1  UNL1        0.0142
      8 C          62.6740   83.8698   12.0459 C.ar    1  UNL1        0.0436
      9 C          64.1166   84.1766   15.7303 C.3     1  UNL1        0.0954
     10 N          64.5132   85.6229   15.7599 N.3     1  UNL1       -0.2934
     11 H          65.5118   85.6502   15.9661 H       1  UNL1        0.1236
     12 N          62.4576   84.7317   10.8375 N.pl3   1  UNL1       -0.3049
     13 C          63.2848   84.5165    9.6049 C.3     1  UNL1        0.1079
     14 C          63.0684   85.3785    8.3965 C.3     1  UNL1        0.0903
     15 N          62.0247   86.4556    8.4207 N.3     1  UNL1       -0.2946
     16 C          61.1975   86.6708    9.6533 C.3     1  UNL1        0.0903
     17 C          61.4139   85.8088   10.8617 C.3     1  UNL1        0.1079
     18 H          61.3745   86.2527    7.6615 H       1  UNL1        0.1233
     19 C          64.6934   87.9312   14.5812 C.3     1  UNL1        0.0886
     20 N          63.6581   88.9971   14.3766 N.3     1  UNL1       -0.2679
     21 C          63.5733   89.7182   13.0640 C.3     1  UNL1        0.0978
     22 C          62.6577   89.2133   11.9887 C.3     1  UNL1        0.0224
     23 C          62.5729   89.9344   10.6761 C.3     1  UNL1        0.0065
     24 C          63.4037   91.1604   10.4389 C.3     1  UNL1        0.0277
     25 C          64.3195   91.6655   11.5143 C.ar    1  UNL1       -0.0073
     26 C          65.1504   92.8916   11.2771 C.ar    1  UNL1       -0.0015
     27 C          66.0661   93.3966   12.3525 C.ar    1  UNL1        0.0203
     28 C          66.1509   92.6754   13.6651 C.ar    1  UNL1        0.0985
     29 N          65.3200   91.4494   13.9022 N.ar    1  UNL1       -0.2471
     30 C          64.4043   90.9444   12.8269 C.ar    1  UNL1        0.0695
     31 C          63.0598   89.0120   16.9048 C.3     1  UNL1        0.0188
     32 C          62.7076   89.3420   15.4846 C.3     1  UNL1        0.0725
@<TRIPOS>BOND
     1    31    32    1
     2    32    20    1
     3    20    19    1
     4     1    19    1
     5     1     2    1
     6     2     3    1
     7     3     4   ar
     8     4     5   ar
     9     5     6   ar
    10     6     7   ar
    11     7     8   ar
    12     8    12    1
    13    12    13    1
    14    13    14    1
    15    14    15    1
    16    15    16    1
    17    16    17    1
    18     4     9    1
    19     9    10    1
    20    21    20    1
    21    21    22    1
    22    22    23    1
    23    23    24    1
    24    24    25    1
    25    25    26   ar
    26    26    27   ar
    27    27    28   ar
    28    28    29   ar
    29    29    30   ar
    30    10     1    1
    31    30    21    1
    32     8     3   ar
    33    17    12    1
    34    30    25   ar
    35    15    18    1
    36    10    11    1
@<TRIPOS>MOLECULE
*****
 32 36 0 0 0
SMALL
GASTEIGER

@<TRIPOS>ATOM
      1 C          61.1107   87.0492   10.4274 C.3     1  UNL1        0.0749
      2 C          61.8377   86.3297   11.5245 C.3     1  UNL1        0.0444
      3 C          62.7582   85.1924   11.1939 C.ar    1  UNL1       -0.0101
      4 C          62.9517   84.7748    9.7663 C.ar    1  UNL1       -0.0091
      5 C          63.8723   83.6374    9.4358 C.ar    1  UNL1       -0.0032
      6 C          64.5993   82.9179   10.5328 C.ar    1  UNL1        0.0010
      7 C          64.4058   83.3355   11.9605 C.ar    1  UNL1        0.0142
      8 C          63.4853   84.4728   12.2910 C.ar    1  UNL1        0.0436
      9 C          62.2247   85.4943    8.6692 C.3     1  UNL1        0.0954
     10 N          61.3042   86.6316    8.9998 N.3     1  UNL1       -0.2934
     11 H          60.3838   86.3798    8.6394 H       1  UNL1        0.1236
     12 N          63.2918   84.8904   13.7187 N.pl3   1  UNL1       -0.3049
     13 C          62.2774   84.1907   14.5739 C.3     1  UNL1        0.1079
     14 C          62.0839   84.6084   16.0015 C.3     1  UNL1        0.0903
     15 N          62.9049   85.7258   16.5739 N.3     1  UNL1       -0.2946
     16 C          63.9193   86.4254   15.7187 C.3     1  UNL1        0.0903
     17 C          64.1127   86.0077   14.2910 C.3     1  UNL1        0.1079
     18 H          63.4085   85.3415   17.3733 H       1  UNL1        0.1233
     19 C          60.1902   88.1866   10.7579 C.3     1  UNL1        0.0886
     20 N          60.6032   89.2169   11.7668 N.3     1  UNL1       -0.2679
     21 C          61.8422   90.0320   11.5422 C.3     1  UNL1        0.0978
     22 C          62.1312   90.5986   10.1838 C.3     1  UNL1        0.0224
     23 C          63.3702   91.4137    9.9592 C.3     1  UNL1        0.0065
     24 C          64.3202   91.6623   11.0930 C.3     1  UNL1        0.0277
     25 C          64.0312   91.0957   12.4516 C.ar    1  UNL1       -0.0073
     26 C          64.9812   91.3442   13.5854 C.ar    1  UNL1       -0.0015
     27 C          64.6922   90.7777   14.9439 C.ar    1  UNL1        0.0203
     28 C          63.4532   89.9625   15.1684 C.ar    1  UNL1        0.0985
     29 N          62.5032   89.7140   14.0346 N.ar    1  UNL1       -0.2471
     30 C          62.7922   90.2806   12.6762 C.ar    1  UNL1        0.0695
     31 C          58.3547   88.9582   13.0425 C.3     1  UNL1        0.0188
     32 C          59.7772   89.4321   13.0003 C.3     1  UNL1        0.0725
@<TRIPOS>BOND
     1    31    32    1
     2    32    20    1
     3    20    19    1
     4     1    19    1
     5     1     2    1
     6     2     3    1
     7     3     4   ar
     8     4     5   ar
     9     5     6   ar
    10     6     7   ar
    11     7     8   ar
    12     8    12    1
    13    12    13    1
    14    13    14    1
    15    14    15    1
    16    15    16    1
    17    16    17    1
    18     4     9    1
    19     9    10    1
    20    21    20    1
    21    21    22    1
    22    22    23    1
    23    23    24    1
    24    24    25    1
    25    25    26   ar
    26    26    27   ar
    27    27    28   ar
    28    28    29   ar
    29    29    30   ar
    30    10     1    1
    31    30    21    1
    32     8     3   ar
    33    17    12    1
    34    30    25   ar
    35    15    18    1
    36    10    11    1
@<TRIPOS>MOLECULE
*****
 32 36 0 0 0
SMALL
GASTEIGER

@<TRIPOS>ATOM
      1 C          63.2782   89.0031   12.7866 C.3     1  UNL1        0.0749
      2 C          63.1184   87.6733   12.1114 C.3     1  UNL1        0.0444
      3 C          62.0557   87.4839   11.0699 C.ar    1  UNL1       -0.0101
      4 C          61.1528   88.6244   10.7037 C.ar    1  UNL1       -0.0091
      5 C          60.0901   88.4350    9.6621 C.ar    1  UNL1       -0.0032
      6 C          59.9302   87.1052    8.9869 C.ar    1  UNL1        0.0010
      7 C          60.8330   85.9647    9.3531 C.ar    1  UNL1        0.0142
      8 C          61.8958   86.1541   10.3946 C.ar    1  UNL1        0.0436
      9 C          61.3127   89.9542   11.3789 C.3     1  UNL1        0.0954
     10 N          62.3754   90.1436   12.4204 N.3     1  UNL1       -0.2934
     11 H          61.9008   90.4301   13.2766 H       1  UNL1        0.1236
     12 N          62.7986   85.0136   10.7609 N.pl3   1  UNL1       -0.3049
     13 C          62.9915   84.6425   12.2015 C.3     1  UNL1        0.1079
     14 C          63.8943   83.5020   12.5678 C.3     1  UNL1        0.0903
     15 N          64.6043   82.7326   11.4935 N.3     1  UNL1       -0.2946
     16 C          64.4114   83.1037   10.0530 C.3     1  UNL1        0.0903
     17 C          63.5086   84.2442    9.6867 C.3     1  UNL1        0.1079
     18 H          64.3147   81.7592   11.5881 H       1  UNL1        0.1233
     19 C          64.3410   89.1925   13.8282 C.3     1  UNL1        0.0886
     20 N          64.2536   90.3413   14.7886 N.3     1  UNL1       -0.2679
     21 C          65.2101   91.4909   14.6719 C.3     1  UNL1        0.0978
     22 C          65.9920   91.9406   15.8704 C.3     1  UNL1        0.0224
     23 C          66.9485   93.0901   15.7536 C.3     1  UNL1        0.0065
     24 C          67.1231   93.7900   14.4385 C.3     1  UNL1        0.0277
     25 C          66.3412   93.3403   13.2400 C.ar    1  UNL1       -0.0073
     26 C          66.5158   94.0402   11.9248 C.ar    1  UNL1       -0.0015
     27 C          65.7338   93.5905   10.7264 C.ar    1  UNL1        0.0203
     28 C          64.7773   92.4410   10.8431 C.ar    1  UNL1        0.0985
     29 N          64.6027   91.7411   12.1582 N.ar    1  UNL1       -0.2471
     30 C          65.3847   92.1908   13.3567 C.ar    1  UNL1        0.0695
     31 C          63.0597   89.1490   16.7642 C.3     1  UNL1        0.0188
     32 C          63.2096   90.3407   15.8658 C.3     1  UNL1        0.0725
@<TRIPOS>BOND
     1    31    32    1
     2    32    20    1
     3    20    19    1
     4     1    19    1
     5     1     2    1
     6     2     3    1
     7     3     4   ar
     8     4     5   ar
     9     5     6   ar
    10     6     7   ar
    11     7     8   ar
    12     8    12    1
    13    12    13    1
    14    13    14    1
    15    14    15    1
    16    15    16    1
    17    16    17    1
    18     4     9    1
    19     9    10    1
    20    21    20    1
    21    21    22    1
    22    22    23    1
    23    23    24    1
    24    24    25    1
    25    25    26   ar
    26    26    27   ar
    27    27    28   ar
    28    28    29   ar
    29    29    30   ar
    30    10     1    1
    31    30    21    1
    32     8     3   ar
    33    17    12    1
    34    30    25   ar
    35    15    18    1
    36    10    11    1
@<TRIPOS>MOLECULE
*****
 32 36 0 0 0
SMALL
GASTEIGER

@<TRIPOS>ATOM
      1 C          62.3959   87.4160   10.3974 C.3     1  UNL1        0.0749
      2 C          62.6884   86.5746   11.6042 C.3     1  UNL1        0.0444
      3 C          63.0668   85.1325   11.4391 C.ar    1  UNL1       -0.0101
      4 C          63.1528   84.5320   10.0673 C.ar    1  UNL1       -0.0091
      5 C          63.5312   83.0898    9.9023 C.ar    1  UNL1       -0.0032
      6 C          63.8237   82.2484   11.1091 C.ar    1  UNL1        0.0010
      7 C          63.7377   82.8490   12.4810 C.ar    1  UNL1        0.0142
      8 C          63.3593   84.2910   12.6460 C.ar    1  UNL1        0.0436
      9 C          62.8603   85.3734    8.8605 C.3     1  UNL1        0.0954
     10 N          62.4819   86.8154    9.0255 N.3     1  UNL1       -0.2934
     11 H          61.5639   86.9300    8.5959 H       1  UNL1        0.1236
     12 N          63.2733   84.8916   14.0178 N.pl3   1  UNL1       -0.3049
     13 C          64.2697   85.9277   14.4467 C.3     1  UNL1        0.1079
     14 C          64.1837   86.5283   15.8185 C.3     1  UNL1        0.0903
     15 N          63.1013   86.0928   16.7614 N.3     1  UNL1       -0.2946
     16 C          62.1051   85.0568   16.3325 C.3     1  UNL1        0.0903
     17 C          62.1910   84.4562   14.9607 C.3     1  UNL1        0.1079
     18 H          62.5702   86.9285   17.0062 H       1  UNL1        0.1233
     19 C          62.0175   88.8581   10.5623 C.3     1  UNL1        0.0886
     20 N          61.6834   89.3950   11.9225 N.3     1  UNL1       -0.2679
     21 C          62.7715   89.9286   12.8063 C.3     1  UNL1        0.0978
     22 C          62.8858   89.4546   14.2248 C.3     1  UNL1        0.0224
     23 C          63.9740   89.9883   15.1086 C.3     1  UNL1        0.0065
     24 C          64.9479   90.9960   14.5739 C.3     1  UNL1        0.0277
     25 C          64.8337   91.4701   13.1553 C.ar    1  UNL1       -0.0073
     26 C          65.8076   92.4778   12.6206 C.ar    1  UNL1       -0.0015
     27 C          65.6934   92.9518   11.2021 C.ar    1  UNL1        0.0203
     28 C          64.6052   92.4181   10.3183 C.ar    1  UNL1        0.0985
     29 N          63.6313   91.4104   10.8530 N.ar    1  UNL1       -0.2471
     30 C          63.7455   90.9364   12.2715 C.ar    1  UNL1        0.0695
     31 C          59.2531   90.2965   11.7455 C.3     1  UNL1        0.0188
     32 C          60.2610   89.3982   12.3990 C.3     1  UNL1        0.0725
@<TRIPOS>BOND
     1    31    32    1
     2    32    20    1
     3    20    19    1
     4     1    19    1
     5     1     2    1
     6     2     3    1
     7     3     4   ar
     8     4     5   ar
     9     5     6   ar
    10     6     7   ar
    11     7     8   ar
    12     8    12    1
    13    12    13    1
    14    13    14    1
    15    14    15    1
    16    15    16    1
    17    16    17    1
    18     4     9    1
    19     9    10    1
    20    21    20    1
    21    21    22    1
    22    22    23    1
    23    23    24    1
    24    24    25    1
    25    25    26   ar
    26    26    27   ar
    27    27    28   ar
    28    28    29   ar
    29    29    30   ar
    30    10     1    1
    31    30    21    1
    32     8     3   ar
    33    17    12    1
    34    30    25   ar
    35    15    18    1
    36    10    11    1
@<TRIPOS>MOLECULE
*****
 32 36 0 0 0
SMALL
GASTEIGER

@<TRIPOS>ATOM
      1 C          63.4010   88.5761   13.3405 C.3     1  UNL1        0.0749
      2 C          63.0766   87.4971   12.3503 C.3     1  UNL1        0.0444
      3 C          63.4281   86.0708   12.6534 C.ar    1  UNL1       -0.0101
      4 C          64.1041   85.7234   13.9466 C.ar    1  UNL1       -0.0091
      5 C          64.4557   84.2970   14.2497 C.ar    1  UNL1       -0.0032
      6 C          64.1312   83.2180   13.2596 C.ar    1  UNL1        0.0010
      7 C          63.4552   83.5653   11.9664 C.ar    1  UNL1        0.0142
      8 C          63.1036   84.9916   11.6633 C.ar    1  UNL1        0.0436
      9 C          64.4286   86.8025   14.9368 C.3     1  UNL1        0.0954
     10 N          64.0770   88.2288   14.6337 N.3     1  UNL1       -0.2934
     11 H          64.9478   88.7592   14.6625 H       1  UNL1        0.1236
     12 N          62.4276   85.3390   10.3701 N.pl3   1  UNL1       -0.3049
     13 C          61.1325   86.0957   10.3804 C.3     1  UNL1        0.1079
     14 C          60.4565   86.4430    9.0872 C.3     1  UNL1        0.0903
     15 N          61.0756   86.0336    7.7837 N.3     1  UNL1       -0.2946
     16 C          62.3707   85.2769    7.7734 C.3     1  UNL1        0.0903
     17 C          63.0467   84.9296    9.0666 C.3     1  UNL1        0.1079
     18 H          61.2300   86.8888    7.2496 H       1  UNL1        0.1233
     19 C          63.0495   90.0026   13.0374 C.3     1  UNL1        0.0886
     20 N          63.4964   90.6277   11.7493 N.3     1  UNL1       -0.2679
     21 C          64.5021   91.7406   11.7649 C.3     1  UNL1        0.0978
     22 C          64.8463   92.4583   10.4936 C.3     1  UNL1        0.0224
     23 C          65.8519   93.5712   10.5093 C.3     1  UNL1        0.0065
     24 C          66.5134   93.9662   11.7963 C.3     1  UNL1        0.0277
     25 C          66.1692   93.2484   13.0677 C.ar    1  UNL1       -0.0073
     26 C          66.8307   93.6434   14.3546 C.ar    1  UNL1       -0.0015
     27 C          66.4865   92.9257   15.6259 C.ar    1  UNL1        0.0203
     28 C          65.4809   91.8128   15.6103 C.ar    1  UNL1        0.0985
     29 N          64.8194   91.4178   14.3233 N.ar    1  UNL1       -0.2471
     30 C          65.1636   92.1356   13.0520 C.ar    1  UNL1        0.0695
     31 C          61.4532   90.0960   10.2352 C.3     1  UNL1        0.0188
     32 C          62.9377   90.1401   10.4454 C.3     1  UNL1        0.0725
@<TRIPOS>BOND
     1    31    32    1
     2    32    20    1
     3    20    19    1
     4     1    19    1
     5     1     2    1
     6     2     3    1
     7     3     4   ar
     8     4     5   ar
     9     5     6   ar
    10     6     7   ar
    11     7     8   ar
    12     8    12    1
    13    12    13    1
    14    13    14    1
    15    14    15    1
    16    15    16    1
    17    16    17    1
    18     4     9    1
    19     9    10    1
    20    21    20    1
    21    21    22    1
    22    22    23    1
    23    23    24    1
    24    24    25    1
    25    25    26   ar
    26    26    27   ar
    27    27    28   ar
    28    28    29   ar
    29    29    30   ar
    30    10     1    1
    31    30    21    1
    32     8     3   ar
    33    17    12    1
    34    30    25   ar
    35    15    18    1
    36    10    11    1
