@<TRIPOS>MOLECULE
*****
 23 26 0 0 0
SMALL
GASTEIGER

@<TRIPOS>ATOM
      1 N          65.3603   92.5881   11.2180 N.ar    1  UNL1       -0.2359
      2 N          64.2936   91.9033   10.4160 N.ar    1  UNL1       -0.1663
      3 C          63.4422   91.1080   11.3608 C.ar    1  UNL1        0.1274
      4 C          63.9826   91.3014   12.7466 C.ar    1  UNL1        0.0876
      5 C          63.5483   90.7627   14.0775 C.ar    1  UNL1        0.1316
      6 N          62.3629   89.8480   14.1657 N.pl3   1  UNL1       -0.3425
      7 N          64.2996   91.1388   15.3201 N.ar    1  UNL1       -0.2093
      8 C          65.4851   92.0536   15.2319 C.ar    1  UNL1        0.2014
      9 N          65.9193   92.5923   13.9010 N.ar    1  UNL1       -0.2050
     10 C          65.1681   92.2162   12.6584 C.ar    1  UNL1        0.1653
     11 H          61.8698   89.6011   13.3502 H       1  UNL1        0.1437
     12 H          62.0779   89.4944   15.0393 H       1  UNL1        0.1437
     13 C          62.2581   90.2670   10.9856 C.ar    1  UNL1        0.1421
     14 C          62.2429   89.1740    9.9585 C.ar    1  UNL1        0.0596
     15 C          60.8568   88.6028    9.9097 C.ar    1  UNL1        0.1540
     16 O          60.0153   89.3429   10.9068 O.2     1  UNL1       -0.3577
     17 N          60.8813   90.3714   11.5718 N.ar    1  UNL1       -0.0758
     18 C          60.3936   87.4875    9.0202 C.3     1  UNL1        0.0602
     19 C          60.6693   86.2023    8.2976 C.3     1  UNL1        0.0081
     20 C          59.3154   86.8409    8.2019 C.3     1  UNL1        0.0081
     21 C          66.3774   94.9627   10.9399 C.3     1  UNL1        0.0264
     22 C          66.4312   93.4872   10.6750 C.3     1  UNL1        0.1069
     23 C          67.5559   92.9109    9.8670 C.3     1  UNL1        0.0264
@<TRIPOS>BOND
     1    21    22    1
     2    22    23    1
     3    22     1    1
     4     1     2   ar
     5     2     3   ar
     6     3    13    1
     7    13    14   ar
     8    14    15   ar
     9    15    18    1
    10    18    19    1
    11    19    20    1
    12    15    16   ar
    13    16    17   ar
    14     3     4   ar
    15     4     5   ar
    16     5     6    1
    17     5     7   ar
    18     7     8   ar
    19     8     9   ar
    20     9    10   ar
    21    10     1   ar
    22    17    13   ar
    23    10     4   ar
    24    20    18    1
    25     6    11    1
    26     6    12    1
@<TRIPOS>MOLECULE
*****
 23 26 0 0 0
SMALL
GASTEIGER

@<TRIPOS>ATOM
      1 N          63.2230   89.1580   12.6334 N.ar    1  UNL1       -0.2359
      2 N          63.5435   87.7155   12.8910 N.ar    1  UNL1       -0.1663
      3 C          62.7689   86.8863   11.9100 C.ar    1  UNL1        0.1274
      4 C          61.9696   87.8163   11.0461 C.ar    1  UNL1        0.0876
      5 C          61.0225   87.5661    9.9102 C.ar    1  UNL1        0.1316
      6 N          60.7419   86.1621    9.4631 N.pl3   1  UNL1       -0.3425
      7 N          60.3561   88.7200    9.2214 N.ar    1  UNL1       -0.2093
      8 C          60.6368   90.1240    9.6685 C.ar    1  UNL1        0.2014
      9 N          61.5839   90.3742   10.8044 N.ar    1  UNL1       -0.2050
     10 C          62.2503   89.2204   11.4933 C.ar    1  UNL1        0.1653
     11 H          61.1793   85.4048    9.9152 H       1  UNL1        0.1437
     12 H          60.1203   85.9979    8.7175 H       1  UNL1        0.1437
     13 C          62.7898   85.3897   11.8103 C.ar    1  UNL1        0.1421
     14 C          62.4101   84.4283   12.8971 C.ar    1  UNL1        0.0596
     15 C          62.5797   83.0362   12.3648 C.ar    1  UNL1        0.1540
     16 O          63.0643   83.1374   10.9488 O.2     1  UNL1       -0.3577
     17 N          63.1941   84.5919   10.6061 N.ar    1  UNL1       -0.0758
     18 C          62.3118   81.7661   13.1164 C.3     1  UNL1        0.0602
     19 C          61.5070   80.9964   14.1212 C.3     1  UNL1        0.0081
     20 C          62.6526   80.3358   13.4133 C.3     1  UNL1        0.0081
     21 C          63.7183   90.3601   14.8828 C.3     1  UNL1        0.0264
     22 C          63.7778   90.3321   13.3842 C.3     1  UNL1        0.1069
     23 C          64.3921   91.4781   12.6366 C.3     1  UNL1        0.0264
@<TRIPOS>BOND
     1    21    22    1
     2    22    23    1
     3    22     1    1
     4     1     2   ar
     5     2     3   ar
     6     3    13    1
     7    13    14   ar
     8    14    15   ar
     9    15    18    1
    10    18    19    1
    11    19    20    1
    12    15    16   ar
    13    16    17   ar
    14     3     4   ar
    15     4     5   ar
    16     5     6    1
    17     5     7   ar
    18     7     8   ar
    19     8     9   ar
    20     9    10   ar
    21    10     1   ar
    22    17    13   ar
    23    10     4   ar
    24    20    18    1
    25     6    11    1
    26     6    12    1
@<TRIPOS>MOLECULE
*****
 23 26 0 0 0
SMALL
GASTEIGER

@<TRIPOS>ATOM
      1 N          63.0066   86.0395   12.1410 N.ar    1  UNL1       -0.2359
      2 N          63.5852   86.8526   13.2607 N.ar    1  UNL1       -0.1663
      3 C          63.2602   88.2941   13.0027 C.ar    1  UNL1        0.1274
      4 C          62.4807   88.3718   11.7236 C.ar    1  UNL1        0.0876
      5 C          61.8934   89.5313   10.9750 C.ar    1  UNL1        0.1316
      6 N          62.0502   90.9248   11.5076 N.pl3   1  UNL1       -0.3425
      7 N          61.1493   89.2974    9.6937 N.ar    1  UNL1       -0.2093
      8 C          60.9925   87.9040    9.1611 C.ar    1  UNL1        0.2014
      9 N          61.5798   86.7444    9.9097 N.ar    1  UNL1       -0.2050
     10 C          62.3239   86.9783   11.1909 C.ar    1  UNL1        0.1653
     11 H          62.5385   91.0783   12.3485 H       1  UNL1        0.1437
     12 H          61.6647   91.6859   11.0162 H       1  UNL1        0.1437
     13 C          63.6469   89.4542   13.8714 C.ar    1  UNL1        0.1421
     14 C          64.9660   90.1680   13.8536 C.ar    1  UNL1        0.0596
     15 C          64.9167   91.2592   14.8816 C.ar    1  UNL1        0.1540
     16 O          63.5669   91.2198   15.5349 O.2     1  UNL1       -0.3577
     17 N          62.7822   90.1042   14.9106 N.ar    1  UNL1       -0.0758
     18 C          66.0227   92.2209   15.2004 C.3     1  UNL1        0.0602
     19 C          67.0643   92.7343   16.1498 C.3     1  UNL1        0.0081
     20 C          66.8969   93.3733   14.8031 C.3     1  UNL1        0.0081
     21 C          62.7840   83.6624   13.1659 C.3     1  UNL1        0.0264
     22 C          63.0950   84.5490   11.9965 C.3     1  UNL1        0.1069
     23 C          63.4943   83.9452   10.6829 C.3     1  UNL1        0.0264
@<TRIPOS>BOND
     1    21    22    1
     2    22    23    1
     3    22     1    1
     4     1     2   ar
     5     2     3   ar
     6     3    13    1
     7    13    14   ar
     8    14    15   ar
     9    15    18    1
    10    18    19    1
    11    19    20    1
    12    15    16   ar
    13    16    17   ar
    14     3     4   ar
    15     4     5   ar
    16     5     6    1
    17     5     7   ar
    18     7     8   ar
    19     8     9   ar
    20     9    10   ar
    21    10     1   ar
    22    17    13   ar
    23    10     4   ar
    24    20    18    1
    25     6    11    1
    26     6    12    1
@<TRIPOS>MOLECULE
*****
 23 26 0 0 0
SMALL
GASTEIGER

@<TRIPOS>ATOM
      1 N          62.6536   90.0752   11.8923 N.ar    1  UNL1       -0.2359
      2 N          63.4856   90.8679   10.9283 N.ar    1  UNL1       -0.1663
      3 C          64.5340   91.5991   11.7133 C.ar    1  UNL1        0.1274
      4 C          64.3499   91.2584   13.1625 C.ar    1  UNL1        0.0876
      5 C          65.0903   91.6840   14.3955 C.ar    1  UNL1        0.1316
      6 N          66.2525   92.6258   14.2849 N.pl3   1  UNL1       -0.3425
      7 N          64.6685   91.1678   15.7392 N.ar    1  UNL1       -0.2093
      8 C          63.5063   90.2260   15.8499 C.ar    1  UNL1        0.2014
      9 N          62.7659   89.8004   14.6168 N.ar    1  UNL1       -0.2050
     10 C          63.1877   90.3166   13.2731 C.ar    1  UNL1        0.1653
     11 H          66.5293   92.9646   13.4030 H       1  UNL1        0.1437
     12 H          66.7385   92.9052   15.0942 H       1  UNL1        0.1437
     13 C          65.5825   92.5110   11.1484 C.ar    1  UNL1        0.1421
     14 C          65.3336   93.7165   10.2912 C.ar    1  UNL1        0.0596
     15 C          66.6613   94.3281    9.9545 C.ar    1  UNL1        0.1540
     16 O          67.7307   93.5004   10.6036 O.2     1  UNL1       -0.3577
     17 N          67.0640   92.3774   11.3415 N.ar    1  UNL1       -0.0758
     18 C          66.8809   95.5522    9.1160 C.3     1  UNL1        0.0602
     19 C          67.5843   96.8557    8.8795 C.3     1  UNL1        0.0081
     20 C          66.5578   96.3690    7.9000 C.3     1  UNL1        0.0081
     21 C          61.7315   87.8149   11.0030 C.3     1  UNL1        0.0264
     22 C          61.4914   89.1957   11.5378 C.3     1  UNL1        0.1069
     23 C          60.0891   89.6967   11.7180 C.3     1  UNL1        0.0264
@<TRIPOS>BOND
     1    21    22    1
     2    22    23    1
     3    22     1    1
     4     1     2   ar
     5     2     3   ar
     6     3    13    1
     7    13    14   ar
     8    14    15   ar
     9    15    18    1
    10    18    19    1
    11    19    20    1
    12    15    16   ar
    13    16    17   ar
    14     3     4   ar
    15     4     5   ar
    16     5     6    1
    17     5     7   ar
    18     7     8   ar
    19     8     9   ar
    20     9    10   ar
    21    10     1   ar
    22    17    13   ar
    23    10     4   ar
    24    20    18    1
    25     6    11    1
    26     6    12    1
@<TRIPOS>MOLECULE
*****
 23 26 0 0 0
SMALL
GASTEIGER

@<TRIPOS>ATOM
      1 N          60.7081   87.6196    9.3090 N.ar    1  UNL1       -0.2359
      2 N          60.9472   86.2865    9.9538 N.ar    1  UNL1       -0.1663
      3 C          61.8763   86.4925   11.1132 C.ar    1  UNL1        0.1274
      4 C          62.2115   87.9529   11.1849 C.ar    1  UNL1        0.0876
      5 C          63.0808   88.7383   12.1215 C.ar    1  UNL1        0.1316
      6 N          63.8028   88.0418   13.2366 N.pl3   1  UNL1       -0.3425
      7 N          63.2281   90.2203   11.9430 N.ar    1  UNL1       -0.2093
      8 C          62.5060   90.9169   10.8279 C.ar    1  UNL1        0.2014
      9 N          61.6367   90.1314    9.8913 N.ar    1  UNL1       -0.2050
     10 C          61.4894   88.6494   10.0698 C.ar    1  UNL1        0.1653
     11 H          63.7062   87.0690   13.3538 H       1  UNL1        0.1437
     12 H          64.3734   88.5573   13.8514 H       1  UNL1        0.1437
     13 C          62.3817   85.4255   12.0385 C.ar    1  UNL1        0.1421
     14 C          62.3313   83.9471   11.7905 C.ar    1  UNL1        0.0596
     15 C          62.9446   83.2574   12.9729 C.ar    1  UNL1        0.1540
     16 O          63.3741   84.3098   13.9518 O.2     1  UNL1       -0.3577
     17 N          63.0262   85.6497   13.3743 N.ar    1  UNL1       -0.0758
     18 C          63.1010   81.7758   13.1461 C.3     1  UNL1        0.0602
     19 C          62.7000   80.3762   12.7851 C.3     1  UNL1        0.0081
     20 C          63.7730   80.6089   13.8072 C.3     1  UNL1        0.0081
     21 C          59.7915   89.2470    7.5029 C.3     1  UNL1        0.0264
     22 C          59.8400   87.8775    8.1132 C.3     1  UNL1        0.1069
     23 C          59.0204   86.7662    7.5276 C.3     1  UNL1        0.0264
@<TRIPOS>BOND
     1    21    22    1
     2    22    23    1
     3    22     1    1
     4     1     2   ar
     5     2     3   ar
     6     3    13    1
     7    13    14   ar
     8    14    15   ar
     9    15    18    1
    10    18    19    1
    11    19    20    1
    12    15    16   ar
    13    16    17   ar
    14     3     4   ar
    15     4     5   ar
    16     5     6    1
    17     5     7   ar
    18     7     8   ar
    19     8     9   ar
    20     9    10   ar
    21    10     1   ar
    22    17    13   ar
    23    10     4   ar
    24    20    18    1
    25     6    11    1
    26     6    12    1
@<TRIPOS>MOLECULE
*****
 23 26 0 0 0
SMALL
GASTEIGER

@<TRIPOS>ATOM
      1 N          61.9589   87.8131   10.6081 N.ar    1  UNL1       -0.2359
      2 N          62.2858   89.0962   11.3128 N.ar    1  UNL1       -0.1663
      3 C          63.0140   88.7567   12.5795 C.ar    1  UNL1        0.1274
      4 C          63.1371   87.2638   12.6577 C.ar    1  UNL1        0.0876
      5 C          63.7587   86.3602   13.6808 C.ar    1  UNL1        0.1316
      6 N          64.4108   86.9434   14.8993 N.pl3   1  UNL1       -0.3425
      7 N          63.7281   84.8733   13.4856 N.ar    1  UNL1       -0.2093
      8 C          63.0760   84.2901   12.2671 C.ar    1  UNL1        0.2014
      9 N          62.4544   85.1937   11.2439 N.ar    1  UNL1       -0.2050
     10 C          62.4850   86.6806   11.4392 C.ar    1  UNL1        0.1653
     11 H          64.4308   87.9193   15.0274 H       1  UNL1        0.1437
     12 H          64.8187   86.3502   15.5708 H       1  UNL1        0.1437
     13 C          63.5287   89.7379   13.5907 C.ar    1  UNL1        0.1421
     14 C          64.7960   90.5330   13.4820 C.ar    1  UNL1        0.0596
     15 C          64.9171   91.3828   14.7122 C.ar    1  UNL1        0.1540
     16 O          63.7245   91.1128   15.5811 O.2     1  UNL1       -0.3577
     17 N          62.8665   90.0962   14.8880 N.ar    1  UNL1       -0.0758
     18 C          66.0343   92.3351   15.0194 C.3     1  UNL1        0.0602
     19 C          66.8950   93.4986   14.6249 C.3     1  UNL1        0.0081
     20 C          67.1091   92.8213   15.9461 C.3     1  UNL1        0.0081
     21 C          60.3751   88.8113    8.8066 C.3     1  UNL1        0.0264
     22 C          61.2332   87.6849    9.3016 C.3     1  UNL1        0.1069
     23 C          61.3657   86.4305    8.4900 C.3     1  UNL1        0.0264
@<TRIPOS>BOND
     1    21    22    1
     2    22    23    1
     3    22     1    1
     4     1     2   ar
     5     2     3   ar
     6     3    13    1
     7    13    14   ar
     8    14    15   ar
     9    15    18    1
    10    18    19    1
    11    19    20    1
    12    15    16   ar
    13    16    17   ar
    14     3     4   ar
    15     4     5   ar
    16     5     6    1
    17     5     7   ar
    18     7     8   ar
    19     8     9   ar
    20     9    10   ar
    21    10     1   ar
    22    17    13   ar
    23    10     4   ar
    24    20    18    1
    25     6    11    1
    26     6    12    1
@<TRIPOS>MOLECULE
*****
 23 26 0 0 0
SMALL
GASTEIGER

@<TRIPOS>ATOM
      1 N          60.8230   88.4521    9.1650 N.ar    1  UNL1       -0.2359
      2 N          61.4645   89.7777    9.4500 N.ar    1  UNL1       -0.1663
      3 C          62.3740   89.6081   10.6307 C.ar    1  UNL1        0.1274
      4 C          62.2945   88.1778   11.0754 C.ar    1  UNL1        0.0876
      5 C          62.9711   87.4336   12.1882 C.ar    1  UNL1        0.1316
      6 N          63.9297   88.1481   13.0941 N.pl3   1  UNL1       -0.3425
      7 N          62.6892   85.9750   12.3951 N.ar    1  UNL1       -0.2093
      8 C          61.7306   85.2605   11.4892 C.ar    1  UNL1        0.2014
      9 N          61.0540   86.0047   10.3765 N.ar    1  UNL1       -0.2050
     10 C          61.3359   87.4633   10.1695 C.ar    1  UNL1        0.1653
     11 H          64.1148   89.1055   12.9583 H       1  UNL1        0.1437
     12 H          64.3738   87.6597   13.8245 H       1  UNL1        0.1437
     13 C          63.2152   90.6806   11.2568 C.ar    1  UNL1        0.1421
     14 C          64.0867   91.6576   10.5247 C.ar    1  UNL1        0.0596
     15 C          64.7428   92.5453   11.5404 C.ar    1  UNL1        0.1540
     16 O          64.2767   92.1168   12.9003 O.2     1  UNL1       -0.3577
     17 N          63.3326   90.9645   12.7250 N.ar    1  UNL1       -0.0758
     18 C          65.6973   93.6647   11.2476 C.3     1  UNL1        0.0602
     19 C          66.1850   95.0584   11.5114 C.3     1  UNL1        0.0081
     20 C          66.8629   94.2099   10.4767 C.3     1  UNL1        0.0081
     21 C          59.1933   86.8157    7.9748 C.3     1  UNL1        0.0264
     22 C          59.8409   88.1655    8.0680 C.3     1  UNL1        0.1069
     23 C          59.5064   89.2287    7.0642 C.3     1  UNL1        0.0264
@<TRIPOS>BOND
     1    21    22    1
     2    22    23    1
     3    22     1    1
     4     1     2   ar
     5     2     3   ar
     6     3    13    1
     7    13    14   ar
     8    14    15   ar
     9    15    18    1
    10    18    19    1
    11    19    20    1
    12    15    16   ar
    13    16    17   ar
    14     3     4   ar
    15     4     5   ar
    16     5     6    1
    17     5     7   ar
    18     7     8   ar
    19     8     9   ar
    20     9    10   ar
    21    10     1   ar
    22    17    13   ar
    23    10     4   ar
    24    20    18    1
    25     6    11    1
    26     6    12    1
@<TRIPOS>MOLECULE
*****
 23 26 0 0 0
SMALL
GASTEIGER

@<TRIPOS>ATOM
      1 N          65.4749   91.9215   13.5446 N.ar    1  UNL1       -0.2359
      2 N          65.3731   90.8528   14.5923 N.ar    1  UNL1       -0.1663
      3 C          64.4247   89.8033   14.0931 C.ar    1  UNL1        0.1274
      4 C          63.9404   90.2234   12.7370 C.ar    1  UNL1        0.0876
      5 C          62.9923   89.5829   11.7671 C.ar    1  UNL1        0.1316
      6 N          62.3432   88.2738   12.1061 N.pl3   1  UNL1       -0.3425
      7 N          62.6932   90.2516   10.4581 N.ar    1  UNL1       -0.2093
      8 C          63.3423   91.5608   10.1191 C.ar    1  UNL1        0.2014
      9 N          64.2904   92.2012   11.0891 N.ar    1  UNL1       -0.2050
     10 C          64.5895   91.5325   12.3980 C.ar    1  UNL1        0.1653
     11 H          62.5395   87.8349   12.9652 H       1  UNL1        0.1437
     12 H          61.7209   87.8535   11.4694 H       1  UNL1        0.1437
     13 C          64.0300   88.5532   14.8221 C.ar    1  UNL1        0.1421
     14 C          64.2439   87.1482   14.3427 C.ar    1  UNL1        0.0596
     15 C          63.6981   86.2152   15.3828 C.ar    1  UNL1        0.1540
     16 O          63.1468   87.0439   16.5050 O.2     1  UNL1       -0.3577
     17 N          63.3518   88.4888   16.1585 N.ar    1  UNL1       -0.0758
     18 C          63.7028   84.7169   15.3129 C.3     1  UNL1        0.0602
     19 C          64.4377   83.4295   15.0842 C.3     1  UNL1        0.0081
     20 C          62.9759   83.4091   15.4205 C.3     1  UNL1        0.0081
     21 C          66.3483   94.1241   12.4787 C.3     1  UNL1        0.0264
     22 C          66.3147   93.1615   13.6288 C.3     1  UNL1        0.1069
     23 C          67.1208   93.4391   14.8628 C.3     1  UNL1        0.0264
@<TRIPOS>BOND
     1    21    22    1
     2    22    23    1
     3    22     1    1
     4     1     2   ar
     5     2     3   ar
     6     3    13    1
     7    13    14   ar
     8    14    15   ar
     9    15    18    1
    10    18    19    1
    11    19    20    1
    12    15    16   ar
    13    16    17   ar
    14     3     4   ar
    15     4     5   ar
    16     5     6    1
    17     5     7   ar
    18     7     8   ar
    19     8     9   ar
    20     9    10   ar
    21    10     1   ar
    22    17    13   ar
    23    10     4   ar
    24    20    18    1
    25     6    11    1
    26     6    12    1
@<TRIPOS>MOLECULE
*****
 23 26 0 0 0
SMALL
GASTEIGER

@<TRIPOS>ATOM
      1 N          65.3393   91.8089   14.4580 N.ar    1  UNL1       -0.2359
      2 N          64.2857   90.7515   14.3100 N.ar    1  UNL1       -0.1663
      3 C          63.8177   90.7599   12.8849 C.ar    1  UNL1        0.1274
      4 C          64.5820   91.8224   12.1521 C.ar    1  UNL1        0.0876
      5 C          64.5431   92.2833   10.7253 C.ar    1  UNL1        0.1316
      6 N          63.6026   91.6350    9.7531 N.pl3   1  UNL1       -0.3425
      7 N          65.4446   93.3926   10.2707 N.ar    1  UNL1       -0.2093
      8 C          66.3851   94.0409   11.2429 C.ar    1  UNL1        0.2014
      9 N          66.4240   93.5800   12.6697 N.ar    1  UNL1       -0.2050
     10 C          65.5224   92.4707   13.1244 C.ar    1  UNL1        0.1653
     11 H          63.0109   90.9070   10.0515 H       1  UNL1        0.1437
     12 H          63.5771   91.9375    8.8165 H       1  UNL1        0.1437
     13 C          62.7693   89.8632   12.2959 C.ar    1  UNL1        0.1421
     14 C          62.9748   88.8795   11.1824 C.ar    1  UNL1        0.0596
     15 C          61.6639   88.2010   10.9153 C.ar    1  UNL1        0.1540
     16 O          60.6482   88.7655   11.8639 O.2     1  UNL1       -0.3577
     17 N          61.3314   89.7928   12.7172 N.ar    1  UNL1       -0.0758
     18 C          61.4128   87.1439    9.8813 C.3     1  UNL1        0.0602
     19 C          60.4913   86.4741    8.9054 C.3     1  UNL1        0.0081
     20 C          61.8994   85.9824    9.0661 C.3     1  UNL1        0.0081
     21 C          67.5797   92.1738   15.7221 C.3     1  UNL1        0.0264
     22 C          66.0799   92.1453   15.7183 C.3     1  UNL1        0.1069
     23 C          65.3208   92.4533   16.9748 C.3     1  UNL1        0.0264
@<TRIPOS>BOND
     1    21    22    1
     2    22    23    1
     3    22     1    1
     4     1     2   ar
     5     2     3   ar
     6     3    13    1
     7    13    14   ar
     8    14    15   ar
     9    15    18    1
    10    18    19    1
    11    19    20    1
    12    15    16   ar
    13    16    17   ar
    14     3     4   ar
    15     4     5   ar
    16     5     6    1
    17     5     7   ar
    18     7     8   ar
    19     8     9   ar
    20     9    10   ar
    21    10     1   ar
    22    17    13   ar
    23    10     4   ar
    24    20    18    1
    25     6    11    1
    26     6    12    1
