@<TRIPOS>MOLECULE
*****
 40 44 0 0 0
SMALL
GASTEIGER

@<TRIPOS>ATOM
      1 C          64.0741   90.4764   13.7871 C.3     1  UNL1        0.1225
      2 O          63.5440   91.3608   12.6977 O.3     1  UNL1       -0.3559
      3 C          62.8415   90.7579   11.5175 C.3     1  UNL1        0.1441
      4 C          62.6691   89.2706   11.4266 C.3     1  UNL1        0.0589
      5 C          63.1992   88.3862   12.5160 C.3     1  UNL1        0.1466
      6 C          63.0268   86.8989   12.4251 C.ar    1  UNL1        0.0618
      7 C          62.3243   86.2961   11.2449 C.ar    1  UNL1        0.1407
      8 F          61.6876   86.8622   10.0102 F       1  UNL1       -0.2043
      9 C          62.1519   84.8088   11.1540 C.ar    1  UNL1        0.0319
     10 C          62.6821   83.9244   12.2433 C.ar    1  UNL1        0.0351
     11 C          63.3846   84.5272   13.4236 C.ar    1  UNL1        0.1737
     12 F          63.9148   83.6428   14.5130 F       1  UNL1       -0.2010
     13 C          63.5570   86.0145   13.5144 C.ar    1  UNL1        0.1655
     14 O          64.2596   86.6174   14.6947 O.3     1  UNL1       -0.4732
     15 C          64.4320   88.1047   14.7856 C.3     1  UNL1        0.2098
     16 C          63.9018   88.9891   13.6962 C.3     1  UNL1        0.0957
     17 S          62.4967   87.7834   11.3358 S.O2    1  UNL1        0.0094
     18 O          62.8960   87.7337   10.6476 O.2     1  UNL1       -0.1684
     19 O          61.1382   87.4289   11.8642 O.2     1  UNL1       -0.1684
     20 C          61.7941   87.1804   10.1555 C.ar    1  UNL1        0.1059
     21 C          60.3132   87.3561    9.9942 C.ar    1  UNL1        0.0192
     22 C          59.6106   86.7532    8.8139 C.ar    1  UNL1        0.0127
     23 C          60.3889   85.9746    7.7951 C.ar    1  UNL1        0.0578
     24 CL         59.6864   85.3717    6.6149 Cl      1  UNL1       -0.0822
     25 C          61.8699   85.7990    7.9565 C.ar    1  UNL1        0.0127
     26 C          62.5724   86.4019    9.1367 C.ar    1  UNL1        0.0192
     27 C          64.7767   91.0792   14.9674 C.3     1  UNL1        0.0550
     28 C          66.2220   91.4666   14.8623 C.3     1  UNL1        0.1534
     29 O          65.6999   93.5218   14.9202 O.2     1  UNL1       -0.1729
     30 S          66.6173   92.6838   14.0800 S.O2    1  UNL1       -0.0085
     31 O          67.5347   91.8458   13.2397 O.2     1  UNL1       -0.1729
     32 C          67.0126   93.9011   13.2975 C.3     1  UNL1        0.1681
     33 C          66.1139   94.4215   12.2152 C.3     1  UNL1        0.0978
     34 N          66.7000   94.9062   10.9223 N.3     1  UNL1       -0.2688
     35 C          67.2935   93.9264    9.9539 C.3     1  UNL1        0.0895
     36 C          67.8795   94.4110    8.6610 C.3     1  UNL1        0.0862
     37 N          67.8720   95.8755    8.3364 N.3     1  UNL1       -0.2951
     38 C          67.2785   96.8552    9.3048 C.3     1  UNL1        0.0862
     39 C          66.6925   96.3706   10.5978 C.3     1  UNL1        0.0895
     40 H          67.3601   95.9803    7.4605 H       1  UNL1        0.1233
@<TRIPOS>BOND
     1    29    30    2
     2    30    31    2
     3    30    28    1
     4    28    27    1
     5     1    27    1
     6     1     2    1
     7     2     3    1
     8     3     4    1
     9     4     5    1
    10     5    17    1
    11    17    18    2
    12    17    19    2
    13    17    20    1
    14    20    21   ar
    15    21    22   ar
    16    22    23   ar
    17    23    24    1
    18    23    25   ar
    19    25    26   ar
    20     5     6    1
    21     6     7   ar
    22     7     8    1
    23     7     9   ar
    24     9    10   ar
    25    10    11   ar
    26    11    12    1
    27    11    13   ar
    28    13    14    1
    29    14    15    1
    30    16    15    1
    31    30    32    1
    32    32    33    1
    33    33    34    1
    34    34    35    1
    35    35    36    1
    36    36    37    1
    37    37    38    1
    38    38    39    1
    39    16     1    1
    40    39    34    1
    41    16     5    1
    42    26    20   ar
    43    13     6   ar
    44    37    40    1
@<TRIPOS>MOLECULE
*****
 40 44 0 0 0
SMALL
GASTEIGER

@<TRIPOS>ATOM
      1 C          63.8884   89.1904   14.2687 C.3     1  UNL1        0.1225
      2 O          64.5905   88.1811   15.1280 O.3     1  UNL1       -0.3559
      3 C          64.5752   86.7307   14.7459 C.3     1  UNL1        0.1441
      4 C          63.8578   86.2896   13.5047 C.3     1  UNL1        0.0589
      5 C          63.1557   87.2989   12.6454 C.3     1  UNL1        0.1466
      6 C          62.4383   86.8577   11.4042 C.ar    1  UNL1        0.0618
      7 C          62.4230   85.4073   11.0221 C.ar    1  UNL1        0.1407
      8 F          63.0020   84.1636   11.6291 F       1  UNL1       -0.2043
      9 C          61.7056   84.9662    9.7809 C.ar    1  UNL1        0.0319
     10 C          61.0035   85.9754    8.9216 C.ar    1  UNL1        0.0351
     11 C          61.0188   87.4259    9.3037 C.ar    1  UNL1        0.1737
     12 F          60.3167   88.4352    8.4444 F       1  UNL1       -0.2010
     13 C          61.7362   87.8670   10.5449 C.ar    1  UNL1        0.1655
     14 O          61.7515   89.3175   10.9270 O.3     1  UNL1       -0.4732
     15 C          62.4689   89.7587   12.1682 C.3     1  UNL1        0.2098
     16 C          63.1710   88.7493   13.0275 C.3     1  UNL1        0.0957
     17 S          63.1404   85.8484   12.2634 S.O2    1  UNL1        0.0094
     18 O          63.5323   85.6308   11.6042 O.2     1  UNL1       -0.1684
     19 O          62.3185   85.1989   13.3371 O.2     1  UNL1       -0.1684
     20 C          63.1251   84.3979   11.8814 C.ar    1  UNL1        0.1059
     21 C          62.1890   83.4505   12.5713 C.ar    1  UNL1        0.0192
     22 C          62.1737   82.0000   12.1893 C.ar    1  UNL1        0.0127
     23 C          63.0945   81.4970   11.1174 C.ar    1  UNL1        0.0578
     24 CL         63.0792   80.0466   10.7353 Cl      1  UNL1       -0.0822
     25 C          64.0307   82.4445   10.4274 C.ar    1  UNL1        0.0127
     26 C          64.0459   83.8949   10.8095 C.ar    1  UNL1        0.0192
     27 C          63.9037   90.6409   14.6507 C.3     1  UNL1        0.0550
     28 C          65.1517   91.2557   15.2116 C.3     1  UNL1        0.1534
     29 O          64.8409   92.3406   13.4154 O.2     1  UNL1       -0.1729
     30 S          65.9938   92.1558   14.3569 S.O2    1  UNL1       -0.0085
     31 O          67.1468   91.9710   15.2984 O.2     1  UNL1       -0.1729
     32 C          66.8361   93.0560   13.5022 C.3     1  UNL1        0.1681
     33 C          66.2463   93.6994   12.2824 C.3     1  UNL1        0.0978
     34 N          66.9382   93.5706   10.9578 N.3     1  UNL1       -0.2688
     35 C          67.6096   92.2822   10.5844 C.3     1  UNL1        0.0895
     36 C          68.3015   92.1534    9.2598 C.3     1  UNL1        0.0862
     37 N          68.3220   93.3129    8.3085 N.3     1  UNL1       -0.2951
     38 C          67.6506   94.6013    8.6817 C.3     1  UNL1        0.0862
     39 C          66.9587   94.7301   10.0064 C.3     1  UNL1        0.0895
     40 H          67.8848   92.9926    7.4444 H       1  UNL1        0.1233
@<TRIPOS>BOND
     1    29    30    2
     2    30    31    2
     3    30    28    1
     4    28    27    1
     5     1    27    1
     6     1     2    1
     7     2     3    1
     8     3     4    1
     9     4     5    1
    10     5    17    1
    11    17    18    2
    12    17    19    2
    13    17    20    1
    14    20    21   ar
    15    21    22   ar
    16    22    23   ar
    17    23    24    1
    18    23    25   ar
    19    25    26   ar
    20     5     6    1
    21     6     7   ar
    22     7     8    1
    23     7     9   ar
    24     9    10   ar
    25    10    11   ar
    26    11    12    1
    27    11    13   ar
    28    13    14    1
    29    14    15    1
    30    16    15    1
    31    30    32    1
    32    32    33    1
    33    33    34    1
    34    34    35    1
    35    35    36    1
    36    36    37    1
    37    37    38    1
    38    38    39    1
    39    16     1    1
    40    39    34    1
    41    16     5    1
    42    26    20   ar
    43    13     6   ar
    44    37    40    1
@<TRIPOS>MOLECULE
*****
 40 44 0 0 0
SMALL
GASTEIGER

@<TRIPOS>ATOM
      1 C          59.6887   88.5881    7.9528 C.3     1  UNL1        0.1225
      2 O          59.4097   87.2271    7.3874 O.3     1  UNL1       -0.3559
      3 C          60.0203   86.0123    8.0209 C.3     1  UNL1        0.1441
      4 C          60.9098   86.1584    9.2198 C.3     1  UNL1        0.0589
      5 C          61.1888   87.5195    9.7852 C.3     1  UNL1        0.1466
      6 C          62.0783   87.6657   10.9841 C.ar    1  UNL1        0.0618
      7 C          62.6889   86.4508   11.6176 C.ar    1  UNL1        0.1407
      8 F          62.6278   84.9808   11.3250 F       1  UNL1       -0.2043
      9 C          63.5784   86.5970   12.8165 C.ar    1  UNL1        0.0319
     10 C          63.8574   87.9580   13.3819 C.ar    1  UNL1        0.0351
     11 C          63.2468   89.1729   12.7484 C.ar    1  UNL1        0.1737
     12 F          63.5258   90.5340   13.3138 F       1  UNL1       -0.2010
     13 C          62.3573   89.0267   11.5495 C.ar    1  UNL1        0.1655
     14 O          61.7467   90.2416   10.9160 O.3     1  UNL1       -0.4732
     15 C          60.8572   90.0954    9.7171 C.3     1  UNL1        0.2098
     16 C          60.5782   88.7343    9.1517 C.3     1  UNL1        0.0957
     17 S          61.7994   86.3046   10.4187 S.O2    1  UNL1        0.0094
     18 O          61.4897   86.0451   11.1059 O.2     1  UNL1       -0.1684
     19 O          62.9027   85.9204    9.4778 O.2     1  UNL1       -0.1684
     20 C          62.4100   85.0897   11.0522 C.ar    1  UNL1        0.1059
     21 C          61.9110   84.6060   12.3814 C.ar    1  UNL1        0.0192
     22 C          62.5216   83.3911   13.0149 C.ar    1  UNL1        0.0127
     23 C          63.6313   82.6600   12.3191 C.ar    1  UNL1        0.0578
     24 CL         64.2419   81.4452   12.9525 Cl      1  UNL1       -0.0822
     25 C          64.1303   83.1438   10.9898 C.ar    1  UNL1        0.0127
     26 C          63.5197   84.3587   10.3564 C.ar    1  UNL1        0.0192
     27 C          59.0781   89.8030    7.3194 C.3     1  UNL1        0.0550
     28 C          58.9625   89.8925    5.8265 C.3     1  UNL1        0.1534
     29 O          57.6606   91.4151    5.1290 O.2     1  UNL1       -0.1729
     30 S          59.1467   91.2122    5.1377 S.O2    1  UNL1       -0.0085
     31 O          60.6329   91.0092    5.1464 O.2     1  UNL1       -0.1729
     32 C          59.3310   92.5319    4.4489 C.3     1  UNL1        0.1681
     33 C          59.5864   92.5776    2.9715 C.3     1  UNL1        0.0978
     34 N          60.8141   93.2584    2.4434 N.3     1  UNL1       -0.2688
     35 C          62.1467   92.5751    2.5300 C.3     1  UNL1        0.0895
     36 C          63.3745   93.2559    2.0018 C.3     1  UNL1        0.0862
     37 N          63.2698   94.6202    1.3870 N.3     1  UNL1       -0.2951
     38 C          61.9373   95.3035    1.3004 C.3     1  UNL1        0.0862
     39 C          60.7095   94.6227    1.8286 C.3     1  UNL1        0.0895
     40 H          63.6227   94.5412    0.4333 H       1  UNL1        0.1233
@<TRIPOS>BOND
     1    29    30    2
     2    30    31    2
     3    30    28    1
     4    28    27    1
     5     1    27    1
     6     1     2    1
     7     2     3    1
     8     3     4    1
     9     4     5    1
    10     5    17    1
    11    17    18    2
    12    17    19    2
    13    17    20    1
    14    20    21   ar
    15    21    22   ar
    16    22    23   ar
    17    23    24    1
    18    23    25   ar
    19    25    26   ar
    20     5     6    1
    21     6     7   ar
    22     7     8    1
    23     7     9   ar
    24     9    10   ar
    25    10    11   ar
    26    11    12    1
    27    11    13   ar
    28    13    14    1
    29    14    15    1
    30    16    15    1
    31    30    32    1
    32    32    33    1
    33    33    34    1
    34    34    35    1
    35    35    36    1
    36    36    37    1
    37    37    38    1
    38    38    39    1
    39    16     1    1
    40    39    34    1
    41    16     5    1
    42    26    20   ar
    43    13     6   ar
    44    37    40    1
