@<TRIPOS>MOLECULE
*****
 49 55 0 0 0
SMALL
GASTEIGER

@<TRIPOS>ATOM
      1 C          59.8361   89.8165    7.0113 C.ar    1  UNL1        0.0481
      2 C          59.4875   88.3576    7.0178 C.ar    1  UNL1        0.0176
      3 C          59.5619   87.5745    8.2951 C.ar    1  UNL1        0.0382
      4 C          59.9848   88.2503    9.5657 C.ar    1  UNL1        0.1388
      5 C          60.3334   89.7092    9.5590 C.ar    1  UNL1        0.0382
      6 C          60.2590   90.4923    8.2819 C.ar    1  UNL1        0.0176
      7 N          59.6131   92.1658    3.1797 N.pl3   1  UNL1       -0.3041
      8 C          58.3615   91.8684    3.9509 C.3     1  UNL1        0.1122
      9 C          58.4358   91.0852    5.2282 C.3     1  UNL1        0.1122
     10 N          59.7618   90.5996    5.7341 N.pl3   1  UNL1       -0.3041
     11 C          61.0135   90.8970    4.9627 C.3     1  UNL1        0.1122
     12 C          60.9391   91.6801    3.6856 C.3     1  UNL1        0.1122
     13 C          59.3902   94.5150   -0.6520 C.ar    1  UNL1        0.0699
     14 C          58.6033   93.2467   -0.5030 C.ar    1  UNL1        0.0190
     15 C          58.6776   92.4637    0.7742 C.ar    1  UNL1        0.0160
     16 C          59.5389   92.9489    1.9024 C.ar    1  UNL1        0.0480
     17 C          60.3258   94.2172    1.7534 C.ar    1  UNL1        0.0160
     18 C          60.2514   95.0002    0.4762 C.ar    1  UNL1        0.0190
     19 N          59.8204   96.1590   -4.1417 N.ar    1  UNL1       -0.2024
     20 N          58.5826   96.8474   -3.6476 N.ar    1  UNL1       -0.1442
     21 C          58.2709   96.3153   -2.2802 C.ar    1  UNL1        0.2073
     22 N          59.3159   95.2981   -1.9292 N.ar    1  UNL1       -0.2398
     23 C          60.2736   95.2015   -3.0797 C.ar    1  UNL1        0.3522
     24 O          61.4737   94.3048   -3.1549 O.2     1  UNL1       -0.2444
     25 C          60.4879   96.3879   -5.4654 C.3     1  UNL1        0.1099
     26 C          59.7284   96.1572   -6.7381 C.3     1  UNL1        0.0265
     27 C          62.9931   95.8996   -5.9504 C.3     1  UNL1        0.0021
     28 C          61.9148   96.8475   -5.5163 C.3     1  UNL1        0.0245
     29 O          60.0591   87.4672   10.8428 O.3     1  UNL1       -0.4727
     30 C          61.3930   87.0715   11.4034 C.3     1  UNL1        0.2374
     31 C          62.2485   88.0915   12.0946 C.3     1  UNL1        0.1909
     32 C          62.1689   89.5783   11.9126 C.3     1  UNL1        0.1783
     33 O          63.2049   90.2095   12.7947 O.3     1  UNL1       -0.3266
     34 C          63.9249   89.1127   13.5219 C.3     1  UNL1        0.2315
     35 O          63.3338   87.8038   13.0893 O.3     1  UNL1       -0.3254
     36 C          64.7004   90.2418   14.1333 C.ar    1  UNL1        0.0410
     37 C          65.9095   90.7871   13.4327 C.ar    1  UNL1        0.0022
     38 C          66.6851   91.9162   14.0441 C.ar    1  UNL1        0.0113
     39 C          66.2516   92.4999   15.3560 C.ar    1  UNL1        0.0585
     40 CL         67.0271   93.6289   15.9674 Cl      1  UNL1       -0.0822
     41 C          65.0425   91.9547   16.0567 C.ar    1  UNL1        0.0226
     42 C          64.2669   90.8256   15.4453 C.ar    1  UNL1        0.0591
     43 CL         63.0578   90.2803   16.1459 Cl      1  UNL1       -0.0824
     44 C          64.8070   88.2521   14.3770 C.3     1  UNL1        0.1897
     45 N          64.2283   87.0753   15.1052 N.ar    1  UNL1       -0.2246
     46 C          64.5645   85.6343   14.8597 C.ar    1  UNL1        0.1974
     47 N          63.7558   84.8013   15.8095 N.ar    1  UNL1       -0.2007
     48 C          62.9198   85.7276   16.6420 C.ar    1  UNL1        0.2210
     49 N          63.2119   87.1330   16.2067 N.ar    1  UNL1       -0.1450
@<TRIPOS>BOND
     1    27    28    1
     2    28    25    1
     3    25    26    1
     4    25    19    1
     5    19    20   ar
     6    20    21   ar
     7    21    22   ar
     8    22    13    1
     9    13    14   ar
    10    14    15   ar
    11    15    16   ar
    12    16     7    1
    13     7     8    1
    14     8     9    1
    15     9    10    1
    16    10     1    1
    17     1     2   ar
    18     2     3   ar
    19     3     4   ar
    20     4    29    1
    21    29    30    1
    22    31    30    1
    23    31    32    1
    24    32    33    1
    25    33    34    1
    26    34    44    1
    27    44    45    1
    28    45    46   ar
    29    46    47   ar
    30    47    48   ar
    31    48    49   ar
    32    34    36    1
    33    36    37   ar
    34    37    38   ar
    35    38    39   ar
    36    39    40    1
    37    39    41   ar
    38    41    42   ar
    39    42    43    1
    40    34    35    1
    41     4     5   ar
    42     5     6   ar
    43    10    11    1
    44    11    12    1
    45    16    17   ar
    46    17    18   ar
    47    22    23   ar
    48    23    24    2
    49    23    19   ar
    50    18    13   ar
    51    12     7    1
    52     6     1   ar
    53    35    31    1
    54    49    45   ar
    55    42    36   ar
@<TRIPOS>MOLECULE
*****
 49 55 0 0 0
SMALL
GASTEIGER

@<TRIPOS>ATOM
      1 C          59.8658   89.7568    7.1474 C.ar    1  UNL1        0.0481
      2 C          60.4726   90.3769    8.3710 C.ar    1  UNL1        0.0176
      3 C          60.5650   89.5888    9.6440 C.ar    1  UNL1        0.0382
      4 C          60.0505   88.1806    9.6933 C.ar    1  UNL1        0.1388
      5 C          59.4437   87.5606    8.4695 C.ar    1  UNL1        0.0382
      6 C          59.3514   88.3487    7.1966 C.ar    1  UNL1        0.0176
      7 N          59.5887   92.1212    3.3286 N.pl3   1  UNL1       -0.3041
      8 C          60.9177   91.6088    3.7986 C.3     1  UNL1        0.1122
      9 C          61.0101   90.8206    5.0716 C.3     1  UNL1        0.1122
     10 N          59.7734   90.5449    5.8745 N.pl3   1  UNL1       -0.3041
     11 C          58.4443   91.0574    5.4043 C.3     1  UNL1        0.1122
     12 C          58.3520   91.8455    4.1314 C.3     1  UNL1        0.1122
     13 C          59.3114   94.4854   -0.4902 C.ar    1  UNL1        0.0699
     14 C          58.7866   93.0812   -0.4377 C.ar    1  UNL1        0.0190
     15 C          58.8791   92.2932    0.8352 C.ar    1  UNL1        0.0160
     16 C          59.4963   92.9093    2.0556 C.ar    1  UNL1        0.0480
     17 C          60.0210   94.3135    2.0031 C.ar    1  UNL1        0.0160
     18 C          59.9286   95.1016    0.7302 C.ar    1  UNL1        0.0190
     19 N          58.4386   96.1324   -3.8948 N.ar    1  UNL1       -0.2024
     20 N          59.7151   96.8404   -3.5492 N.ar    1  UNL1       -0.1442
     21 C          60.1974   96.3096   -2.2317 C.ar    1  UNL1        0.2073
     22 N          59.2190   95.2736   -1.7632 N.ar    1  UNL1       -0.2398
     23 C          58.1320   95.1641   -2.7910 C.ar    1  UNL1        0.3522
     24 O          56.9466   94.2473   -2.7265 O.2     1  UNL1       -0.2444
     25 C          57.6136   96.3539   -5.1278 C.3     1  UNL1        0.1099
     26 C          58.1996   96.0810   -6.4814 C.3     1  UNL1        0.0265
     27 C          55.0649   95.8712   -4.9821 C.3     1  UNL1        0.0021
     28 C          56.2026   96.8484   -5.0073 C.3     1  UNL1        0.0245
     29 O          60.1429   87.3925   10.9662 O.3     1  UNL1       -0.4727
     30 C          61.4850   87.0053   11.5128 C.3     1  UNL1        0.2374
     31 C          62.3533   88.0369   12.1699 C.3     1  UNL1        0.1909
     32 C          62.3899   89.4994   11.8382 C.3     1  UNL1        0.1783
     33 O          63.3967   90.1536   12.7373 O.3     1  UNL1       -0.3266
     34 C          63.9822   89.0954   13.6248 C.3     1  UNL1        0.2315
     35 O          63.3374   87.7873   13.2741 O.3     1  UNL1       -0.3254
     36 C          64.7845   90.2320   14.1855 C.ar    1  UNL1        0.0410
     37 C          65.9583   90.7699   13.4220 C.ar    1  UNL1        0.0022
     38 C          66.7607   91.9066   13.9827 C.ar    1  UNL1        0.0113
     39 C          66.3892   92.5053   15.3069 C.ar    1  UNL1        0.0585
     40 CL         67.1915   93.6419   15.8676 Cl      1  UNL1       -0.0822
     41 C          65.2154   91.9675   16.0704 C.ar    1  UNL1        0.0226
     42 C          64.4130   90.8308   15.5097 C.ar    1  UNL1        0.0591
     43 CL         63.2393   90.2930   16.2732 Cl      1  UNL1       -0.0824
     44 C          64.7355   88.2750   14.6295 C.3     1  UNL1        0.1897
     45 N          64.1678   86.9730   15.1116 N.ar    1  UNL1       -0.2246
     46 C          63.1634   86.8028   16.2126 C.ar    1  UNL1        0.1974
     47 N          62.8797   85.3372   16.3588 N.ar    1  UNL1       -0.2007
     48 C          63.7088   84.6015   15.3482 C.ar    1  UNL1        0.2210
     49 N          64.5049   85.6124   14.5774 N.ar    1  UNL1       -0.1450
@<TRIPOS>BOND
     1    27    28    1
     2    28    25    1
     3    25    26    1
     4    25    19    1
     5    19    20   ar
     6    20    21   ar
     7    21    22   ar
     8    22    13    1
     9    13    14   ar
    10    14    15   ar
    11    15    16   ar
    12    16     7    1
    13     7     8    1
    14     8     9    1
    15     9    10    1
    16    10     1    1
    17     1     2   ar
    18     2     3   ar
    19     3     4   ar
    20     4    29    1
    21    29    30    1
    22    31    30    1
    23    31    32    1
    24    32    33    1
    25    33    34    1
    26    34    44    1
    27    44    45    1
    28    45    46   ar
    29    46    47   ar
    30    47    48   ar
    31    48    49   ar
    32    34    36    1
    33    36    37   ar
    34    37    38   ar
    35    38    39   ar
    36    39    40    1
    37    39    41   ar
    38    41    42   ar
    39    42    43    1
    40    34    35    1
    41     4     5   ar
    42     5     6   ar
    43    10    11    1
    44    11    12    1
    45    16    17   ar
    46    17    18   ar
    47    22    23   ar
    48    23    24    2
    49    23    19   ar
    50    18    13   ar
    51    12     7    1
    52     6     1   ar
    53    35    31    1
    54    49    45   ar
    55    42    36   ar
@<TRIPOS>MOLECULE
*****
 49 55 0 0 0
SMALL
GASTEIGER

@<TRIPOS>ATOM
      1 C          60.1064   89.8920    6.8453 C.ar    1  UNL1        0.0481
      2 C          60.9533   90.3955    7.9763 C.ar    1  UNL1        0.0176
      3 C          61.0469   89.6097    9.2507 C.ar    1  UNL1        0.0382
      4 C          60.2937   88.3204    9.3938 C.ar    1  UNL1        0.1388
      5 C          59.4467   87.8170    8.2627 C.ar    1  UNL1        0.0382
      6 C          59.3531   88.6028    6.9885 C.ar    1  UNL1        0.0176
      7 N          59.8255   92.2495    3.0225 N.pl3   1  UNL1       -0.3041
      8 C          61.1540   91.7324    3.4888 C.3     1  UNL1        0.1122
      9 C          61.2477   90.9465    4.7631 C.3     1  UNL1        0.1122
     10 N          60.0128   90.6778    5.5711 N.pl3   1  UNL1       -0.3041
     11 C          58.6842   91.1950    5.1047 C.3     1  UNL1        0.1122
     12 C          58.5906   91.9808    3.8305 C.3     1  UNL1        0.1122
     13 C          59.5446   94.6070   -0.8002 C.ar    1  UNL1        0.0699
     14 C          60.5889   94.9531    0.2194 C.ar    1  UNL1        0.0190
     15 C          60.6825   94.1673    1.4936 C.ar    1  UNL1        0.0160
     16 C          59.7318   93.0353    1.7482 C.ar    1  UNL1        0.0480
     17 C          58.6875   92.6892    0.7287 C.ar    1  UNL1        0.0160
     18 C          58.5939   93.4750   -0.5455 C.ar    1  UNL1        0.0190
     19 N          59.9820   96.3488   -4.2412 N.ar    1  UNL1       -0.2024
     20 N          58.6314   96.8554   -3.8295 N.ar    1  UNL1       -0.1442
     21 C          58.3032   96.2646   -2.4904 C.ar    1  UNL1        0.2073
     22 N          59.4509   95.3928   -2.0745 N.ar    1  UNL1       -0.2398
     23 C          60.4884   95.4449   -3.1565 C.ar    1  UNL1        0.3522
     24 O          61.8017   94.7202   -3.1544 O.2     1  UNL1       -0.2444
     25 C          60.7000   96.6867   -5.5141 C.3     1  UNL1        0.1099
     26 C          59.9275   96.8560   -6.7887 C.3     1  UNL1        0.0265
     27 C          63.0626   95.8261   -6.1678 C.3     1  UNL1        0.0021
     28 C          62.1904   96.8555   -5.5124 C.3     1  UNL1        0.0245
     29 O          60.3873   87.5346   10.6681 O.3     1  UNL1       -0.4727
     30 C          60.2940   88.2364   11.9905 C.3     1  UNL1        0.2374
     31 C          61.3950   89.1548   12.4315 C.3     1  UNL1        0.1909
     32 C          61.4036   90.6488   12.2975 C.3     1  UNL1        0.1783
     33 O          62.6945   91.1578   12.8671 O.3     1  UNL1       -0.3266
     34 C          63.4837   89.9784   13.3531 C.3     1  UNL1        0.2315
     35 O          62.6805   88.7405   13.0839 O.3     1  UNL1       -0.3254
     36 C          64.4961   91.0151   13.7409 C.ar    1  UNL1        0.0410
     37 C          64.8800   91.1867   15.1807 C.ar    1  UNL1        0.0022
     38 C          65.8924   92.2235   15.5686 C.ar    1  UNL1        0.0113
     39 C          66.5208   93.0884   14.5166 C.ar    1  UNL1        0.0585
     40 CL         67.5332   94.1251   14.9043 Cl      1  UNL1       -0.0822
     41 C          66.1370   92.9168   13.0767 C.ar    1  UNL1        0.0226
     42 C          65.1245   91.8801   12.6888 C.ar    1  UNL1        0.0591
     43 CL         64.7406   91.7085   11.2490 Cl      1  UNL1       -0.0824
     44 C          64.4846   89.0157   13.9202 C.3     1  UNL1        0.1897
     45 N          64.0472   87.9728   14.9056 N.ar    1  UNL1       -0.2246
     46 C          64.2480   86.4926   14.7703 C.ar    1  UNL1        0.1974
     47 N          63.6572   85.8320   15.9803 N.ar    1  UNL1       -0.2007
     48 C          63.0910   86.9040   16.8637 C.ar    1  UNL1        0.2210
     49 N          63.3321   88.2272   16.1994 N.ar    1  UNL1       -0.1450
@<TRIPOS>BOND
     1    27    28    1
     2    28    25    1
     3    25    26    1
     4    25    19    1
     5    19    20   ar
     6    20    21   ar
     7    21    22   ar
     8    22    13    1
     9    13    14   ar
    10    14    15   ar
    11    15    16   ar
    12    16     7    1
    13     7     8    1
    14     8     9    1
    15     9    10    1
    16    10     1    1
    17     1     2   ar
    18     2     3   ar
    19     3     4   ar
    20     4    29    1
    21    29    30    1
    22    31    30    1
    23    31    32    1
    24    32    33    1
    25    33    34    1
    26    34    44    1
    27    44    45    1
    28    45    46   ar
    29    46    47   ar
    30    47    48   ar
    31    48    49   ar
    32    34    36    1
    33    36    37   ar
    34    37    38   ar
    35    38    39   ar
    36    39    40    1
    37    39    41   ar
    38    41    42   ar
    39    42    43    1
    40    34    35    1
    41     4     5   ar
    42     5     6   ar
    43    10    11    1
    44    11    12    1
    45    16    17   ar
    46    17    18   ar
    47    22    23   ar
    48    23    24    2
    49    23    19   ar
    50    18    13   ar
    51    12     7    1
    52     6     1   ar
    53    35    31    1
    54    49    45   ar
    55    42    36   ar
@<TRIPOS>MOLECULE
*****
 49 55 0 0 0
SMALL
GASTEIGER

@<TRIPOS>ATOM
      1 C          60.3869   90.4138    6.8211 C.ar    1  UNL1        0.0481
      2 C          61.4191   90.9358    7.7761 C.ar    1  UNL1        0.0176
      3 C          61.5779   90.3044    9.1275 C.ar    1  UNL1        0.0382
      4 C          60.7046   89.1510    9.5238 C.ar    1  UNL1        0.1388
      5 C          59.6724   88.6291    8.5686 C.ar    1  UNL1        0.0382
      6 C          59.5135   89.2605    7.2173 C.ar    1  UNL1        0.0176
      7 N          59.9103   92.3081    2.7671 N.pl3   1  UNL1       -0.3041
      8 C          61.2665   91.8712    3.2360 C.3     1  UNL1        0.1122
      9 C          61.4254   91.2397    4.5874 C.3     1  UNL1        0.1122
     10 N          60.2281   91.0452    5.4698 N.pl3   1  UNL1       -0.3041
     11 C          58.8718   91.4822    5.0008 C.3     1  UNL1        0.1122
     12 C          58.7130   92.1136    3.6495 C.3     1  UNL1        0.1122
     13 C          59.4337   94.2022   -1.2869 C.ar    1  UNL1        0.0699
     14 C          59.4493   92.7082   -1.1543 C.ar    1  UNL1        0.0190
     15 C          59.6081   92.0769    0.1970 C.ar    1  UNL1        0.0160
     16 C          59.7515   92.9395    1.4157 C.ar    1  UNL1        0.0480
     17 C          59.7359   94.4335    1.2832 C.ar    1  UNL1        0.0160
     18 C          59.5770   95.0649   -0.0681 C.ar    1  UNL1        0.0190
     19 N          58.3585   95.4801   -4.7907 N.ar    1  UNL1       -0.2024
     20 N          59.7022   96.1307   -4.6447 N.ar    1  UNL1       -0.1442
     21 C          60.2685   95.7311   -3.3144 C.ar    1  UNL1        0.2073
     22 N          59.2748   94.8337   -2.6382 N.ar    1  UNL1       -0.2398
     23 C          58.0944   94.6786   -3.5506 C.ar    1  UNL1        0.3522
     24 O          56.8655   93.8648   -3.2720 O.2     1  UNL1       -0.2444
     25 C          57.4402   95.6086   -5.9698 C.3     1  UNL1        0.1099
     26 C          57.8912   95.1506   -7.3251 C.3     1  UNL1        0.0265
     27 C          54.8613   95.3110   -5.8657 C.3     1  UNL1        0.0021
     28 C          56.0709   96.1950   -5.7935 C.3     1  UNL1        0.0245
     29 O          60.8634   88.5196   10.8751 O.3     1  UNL1       -0.4727
     30 C          62.1654   87.8790   11.2552 C.3     1  UNL1        0.2374
     31 C          62.2161   86.4136   11.5717 C.3     1  UNL1        0.1909
     32 C          61.5580   85.3185   10.7858 C.3     1  UNL1        0.1783
     33 O          61.8689   84.0142   11.4581 O.3     1  UNL1       -0.3266
     34 C          62.7192   84.3032   12.6596 C.3     1  UNL1        0.2315
     35 O          62.9337   85.7861   12.7298 O.3     1  UNL1       -0.3254
     36 C          62.6807   82.8157   12.8488 C.ar    1  UNL1        0.0410
     37 C          61.8978   82.2240   13.9832 C.ar    1  UNL1        0.0022
     38 C          61.8593   80.7364   14.1724 C.ar    1  UNL1        0.0113
     39 C          62.6036   79.8406   13.2272 C.ar    1  UNL1        0.0585
     40 CL         62.5651   78.3531   13.4164 Cl      1  UNL1       -0.0822
     41 C          63.3865   80.4323   12.0927 C.ar    1  UNL1        0.0226
     42 C          63.4250   81.9199   11.9035 C.ar    1  UNL1        0.0591
     43 CL         64.2079   82.5116   10.7691 Cl      1  UNL1       -0.0824
     44 C          63.5614   84.2811   13.9006 C.3     1  UNL1        0.1897
     45 N          63.1649   85.1035   15.0908 N.ar    1  UNL1       -0.2246
     46 C          62.0124   84.8261   16.0098 C.ar    1  UNL1        0.1974
     47 N          61.9866   85.8987   17.0579 N.ar    1  UNL1       -0.2007
     48 C          63.1232   86.8393   16.7866 C.ar    1  UNL1        0.2210
     49 N          63.8514   86.3478   15.5709 N.ar    1  UNL1       -0.1450
@<TRIPOS>BOND
     1    27    28    1
     2    28    25    1
     3    25    26    1
     4    25    19    1
     5    19    20   ar
     6    20    21   ar
     7    21    22   ar
     8    22    13    1
     9    13    14   ar
    10    14    15   ar
    11    15    16   ar
    12    16     7    1
    13     7     8    1
    14     8     9    1
    15     9    10    1
    16    10     1    1
    17     1     2   ar
    18     2     3   ar
    19     3     4   ar
    20     4    29    1
    21    29    30    1
    22    31    30    1
    23    31    32    1
    24    32    33    1
    25    33    34    1
    26    34    44    1
    27    44    45    1
    28    45    46   ar
    29    46    47   ar
    30    47    48   ar
    31    48    49   ar
    32    34    36    1
    33    36    37   ar
    34    37    38   ar
    35    38    39   ar
    36    39    40    1
    37    39    41   ar
    38    41    42   ar
    39    42    43    1
    40    34    35    1
    41     4     5   ar
    42     5     6   ar
    43    10    11    1
    44    11    12    1
    45    16    17   ar
    46    17    18   ar
    47    22    23   ar
    48    23    24    2
    49    23    19   ar
    50    18    13   ar
    51    12     7    1
    52     6     1   ar
    53    35    31    1
    54    49    45   ar
    55    42    36   ar
@<TRIPOS>MOLECULE
*****
 49 55 0 0 0
SMALL
GASTEIGER

@<TRIPOS>ATOM
      1 C          60.3693   90.2768    7.1216 C.ar    1  UNL1        0.0481
      2 C          61.2937   90.8729    8.1414 C.ar    1  UNL1        0.0176
      3 C          61.4080   90.2535    9.5029 C.ar    1  UNL1        0.0382
      4 C          60.5979   89.0382    9.8444 C.ar    1  UNL1        0.1388
      5 C          59.6734   88.4422    8.8244 C.ar    1  UNL1        0.0382
      6 C          59.5591   89.0615    7.4631 C.ar    1  UNL1        0.0176
      7 N          60.0264   92.1349    3.0375 N.pl3   1  UNL1       -0.3041
      8 C          61.3450   91.5967    3.5083 C.3     1  UNL1        0.1122
      9 C          61.4593   90.9774    4.8697 C.3     1  UNL1        0.1122
     10 N          60.2550   90.8962    5.7602 N.pl3   1  UNL1       -0.3041
     11 C          58.9364   91.4344    5.2894 C.3     1  UNL1        0.1122
     12 C          58.8221   92.0537    3.9280 C.3     1  UNL1        0.1122
     13 C          59.6834   93.9931   -1.0466 C.ar    1  UNL1        0.0699
     14 C          59.4189   94.8185    0.1776 C.ar    1  UNL1        0.0190
     15 C          59.5332   94.1992    1.5389 C.ar    1  UNL1        0.0160
     16 C          59.9121   92.7543    1.6761 C.ar    1  UNL1        0.0480
     17 C          60.1766   91.9288    0.4519 C.ar    1  UNL1        0.0160
     18 C          60.0622   92.5482   -0.9094 C.ar    1  UNL1        0.0190
     19 N          60.0547   95.2682   -4.6937 N.ar    1  UNL1       -0.2024
     20 N          58.7315   95.8629   -4.3121 N.ar    1  UNL1       -0.1442
     21 C          58.4314   95.4576   -2.8994 C.ar    1  UNL1        0.2073
     22 N          59.5691   94.6124   -2.4080 N.ar    1  UNL1       -0.2398
     23 C          60.5723   94.4954   -3.5170 C.ar    1  UNL1        0.3522
     24 O          61.8660   93.7385   -3.4593 O.2     1  UNL1       -0.2444
     25 C          60.7399   95.4198   -6.0195 C.3     1  UNL1        0.1099
     26 C          60.6226   96.7064   -6.7816 C.3     1  UNL1        0.0265
     27 C          63.0405   94.3575   -6.5926 C.3     1  UNL1        0.0021
     28 C          61.5424   94.2847   -6.5831 C.3     1  UNL1        0.0245
     29 O          60.7121   88.4188   11.2057 O.3     1  UNL1       -0.4727
     30 C          61.9895   87.7512   11.6211 C.3     1  UNL1        0.2374
     31 C          62.1134   86.2580   11.5484 C.3     1  UNL1        0.1909
     32 C          61.5424   85.3770   10.4770 C.3     1  UNL1        0.1783
     33 O          61.9061   83.9583   10.8007 O.3     1  UNL1       -0.3266
     34 C          62.7019   83.9624   12.0723 C.3     1  UNL1        0.2315
     35 O          62.8299   85.3837   12.5344 O.3     1  UNL1       -0.3254
     36 C          62.7419   82.4771   11.8671 C.ar    1  UNL1        0.0410
     37 C          62.1226   81.5628   12.8823 C.ar    1  UNL1        0.0022
     38 C          62.1626   80.0773   12.6771 C.ar    1  UNL1        0.0113
     39 C          62.8218   79.5063   11.4568 C.ar    1  UNL1        0.0585
     40 CL         62.8618   78.0210   11.2516 Cl      1  UNL1       -0.0822
     41 C          63.4411   80.4206   10.4415 C.ar    1  UNL1        0.0226
     42 C          63.4011   81.9060   10.6467 C.ar    1  UNL1        0.0591
     43 CL         64.0204   82.8203    9.6316 Cl      1  UNL1       -0.0824
     44 C          63.5060   83.6560   13.3009 C.3     1  UNL1        0.1897
     45 N          63.2741   84.4339   14.5623 N.ar    1  UNL1       -0.2246
     46 C          62.0663   84.3401   15.4467 C.ar    1  UNL1        0.1974
     47 N          62.2551   85.2904   16.5917 N.ar    1  UNL1       -0.2007
     48 C          63.5798   85.9716   16.4151 C.ar    1  UNL1        0.2210
     49 N          64.2096   85.4423   15.1608 N.ar    1  UNL1       -0.1450
@<TRIPOS>BOND
     1    27    28    1
     2    28    25    1
     3    25    26    1
     4    25    19    1
     5    19    20   ar
     6    20    21   ar
     7    21    22   ar
     8    22    13    1
     9    13    14   ar
    10    14    15   ar
    11    15    16   ar
    12    16     7    1
    13     7     8    1
    14     8     9    1
    15     9    10    1
    16    10     1    1
    17     1     2   ar
    18     2     3   ar
    19     3     4   ar
    20     4    29    1
    21    29    30    1
    22    31    30    1
    23    31    32    1
    24    32    33    1
    25    33    34    1
    26    34    44    1
    27    44    45    1
    28    45    46   ar
    29    46    47   ar
    30    47    48   ar
    31    48    49   ar
    32    34    36    1
    33    36    37   ar
    34    37    38   ar
    35    38    39   ar
    36    39    40    1
    37    39    41   ar
    38    41    42   ar
    39    42    43    1
    40    34    35    1
    41     4     5   ar
    42     5     6   ar
    43    10    11    1
    44    11    12    1
    45    16    17   ar
    46    17    18   ar
    47    22    23   ar
    48    23    24    2
    49    23    19   ar
    50    18    13   ar
    51    12     7    1
    52     6     1   ar
    53    35    31    1
    54    49    45   ar
    55    42    36   ar
@<TRIPOS>MOLECULE
*****
 49 55 0 0 0
SMALL
GASTEIGER

@<TRIPOS>ATOM
      1 C          60.0066   90.0917    6.3639 C.ar    1  UNL1        0.0481
      2 C          60.8710   90.4946    7.5216 C.ar    1  UNL1        0.0176
      3 C          60.7546   89.7729    8.8315 C.ar    1  UNL1        0.0382
      4 C          59.7737   88.6483    8.9835 C.ar    1  UNL1        0.1388
      5 C          58.9093   88.2454    7.8257 C.ar    1  UNL1        0.0382
      6 C          59.0257   88.9671    6.5159 C.ar    1  UNL1        0.0176
      7 N          60.3559   92.2568    2.4345 N.pl3   1  UNL1       -0.3041
      8 C          61.5513   91.5632    3.0174 C.3     1  UNL1        0.1122
      9 C          61.4349   90.8414    4.3273 C.3     1  UNL1        0.1122
     10 N          60.1231   90.8134    5.0541 N.pl3   1  UNL1       -0.3041
     11 C          58.9277   91.5071    4.4711 C.3     1  UNL1        0.1122
     12 C          59.0441   92.2288    3.1614 C.3     1  UNL1        0.1122
     13 C          60.7052   94.4221   -1.4948 C.ar    1  UNL1        0.0699
     14 C          61.3213   95.0073   -0.2587 C.ar    1  UNL1        0.0190
     15 C          61.2049   94.2855    1.0510 C.ar    1  UNL1        0.0160
     16 C          60.4724   92.9786    1.1247 C.ar    1  UNL1        0.0480
     17 C          59.8563   92.3935   -0.1114 C.ar    1  UNL1        0.0160
     18 C          59.9727   93.1152   -1.4212 C.ar    1  UNL1        0.0190
     19 N          61.4477   95.7111   -5.0799 N.ar    1  UNL1       -0.2024
     20 N          60.5538   96.7980   -4.5604 N.ar    1  UNL1       -0.1442
     21 C          60.1669   96.4474   -3.1543 C.ar    1  UNL1        0.2073
     22 N          60.8216   95.1439   -2.8046 N.ar    1  UNL1       -0.2398
     23 C          61.6132   94.6889   -3.9947 C.ar    1  UNL1        0.3522
     24 O          62.4273   93.4322   -4.0841 O.2     1  UNL1       -0.2444
     25 C          62.0672   95.6562   -6.4449 C.3     1  UNL1        0.1099
     26 C          61.9516   94.4099   -7.2714 C.3     1  UNL1        0.0265
     27 C          64.2418   96.7217   -7.3862 C.3     1  UNL1        0.0021
     28 C          62.8025   96.8476   -6.9833 C.3     1  UNL1        0.0245
     29 O          59.6573   87.9265   10.2933 O.3     1  UNL1       -0.4727
     30 C          59.6302   88.7019   11.5770 C.3     1  UNL1        0.2374
     31 C          60.8606   89.4210   12.0450 C.3     1  UNL1        0.1909
     32 C          61.0800   90.9046   12.0147 C.3     1  UNL1        0.1783
     33 O          62.4426   91.1833   12.5764 O.3     1  UNL1       -0.3266
     34 C          63.0655   89.8719   12.9538 C.3     1  UNL1        0.2315
     35 O          62.0877   88.7828   12.6253 O.3     1  UNL1       -0.3254
     36 C          64.2240   90.7242   13.3798 C.ar    1  UNL1        0.0410
     37 C          65.1585   91.2880   12.3508 C.ar    1  UNL1        0.0022
     38 C          66.3171   92.1403   12.7768 C.ar    1  UNL1        0.0113
     39 C          66.5411   92.4287   14.2315 C.ar    1  UNL1        0.0585
     40 CL         67.6997   93.2809   14.6575 Cl      1  UNL1       -0.0822
     41 C          65.6067   91.8648   15.2606 C.ar    1  UNL1        0.0226
     42 C          64.4480   91.0125   14.8346 C.ar    1  UNL1        0.0591
     43 CL         63.5135   90.4487   15.8636 Cl      1  UNL1       -0.0824
     44 C          63.9305   88.7387   13.4202 C.3     1  UNL1        0.1897
     45 N          63.5463   87.3233   13.1059 N.ar    1  UNL1       -0.2246
     46 C          63.9162   86.1106   13.9074 C.ar    1  UNL1        0.1974
     47 N          63.3232   84.9098   13.2318 N.ar    1  UNL1       -0.2007
     48 C          62.5869   85.3804   12.0127 C.ar    1  UNL1        0.2210
     49 N          62.7247   86.8720   11.9349 N.ar    1  UNL1       -0.1450
@<TRIPOS>BOND
     1    27    28    1
     2    28    25    1
     3    25    26    1
     4    25    19    1
     5    19    20   ar
     6    20    21   ar
     7    21    22   ar
     8    22    13    1
     9    13    14   ar
    10    14    15   ar
    11    15    16   ar
    12    16     7    1
    13     7     8    1
    14     8     9    1
    15     9    10    1
    16    10     1    1
    17     1     2   ar
    18     2     3   ar
    19     3     4   ar
    20     4    29    1
    21    29    30    1
    22    31    30    1
    23    31    32    1
    24    32    33    1
    25    33    34    1
    26    34    44    1
    27    44    45    1
    28    45    46   ar
    29    46    47   ar
    30    47    48   ar
    31    48    49   ar
    32    34    36    1
    33    36    37   ar
    34    37    38   ar
    35    38    39   ar
    36    39    40    1
    37    39    41   ar
    38    41    42   ar
    39    42    43    1
    40    34    35    1
    41     4     5   ar
    42     5     6   ar
    43    10    11    1
    44    11    12    1
    45    16    17   ar
    46    17    18   ar
    47    22    23   ar
    48    23    24    2
    49    23    19   ar
    50    18    13   ar
    51    12     7    1
    52     6     1   ar
    53    35    31    1
    54    49    45   ar
    55    42    36   ar
@<TRIPOS>MOLECULE
*****
 49 55 0 0 0
SMALL
GASTEIGER

@<TRIPOS>ATOM
      1 C          59.6449   93.6316    1.9933 C.ar    1  UNL1        0.0481
      2 C          60.1296   95.0493    2.0660 C.ar    1  UNL1        0.0176
      3 C          59.9256   95.9723    0.9013 C.ar    1  UNL1        0.0382
      4 C          59.2369   95.4777   -0.3360 C.ar    1  UNL1        0.1388
      5 C          58.7521   94.0600   -0.4086 C.ar    1  UNL1        0.0382
      6 C          58.9561   93.1370    0.7560 C.ar    1  UNL1        0.0176
      7 N          60.2568   90.8626    5.4873 N.pl3   1  UNL1       -0.3041
      8 C          61.4164   91.2307    4.6100 C.3     1  UNL1        0.1122
      9 C          61.2125   92.1537    3.4453 C.3     1  UNL1        0.1122
     10 N          59.8489   92.7087    3.1580 N.pl3   1  UNL1       -0.3041
     11 C          58.6892   92.3406    4.0354 C.3     1  UNL1        0.1122
     12 C          58.8932   91.4176    5.2000 C.3     1  UNL1        0.1122
     13 C          60.8687   88.0937    8.9814 C.ar    1  UNL1        0.0699
     14 C          61.5264   89.4417    8.9686 C.ar    1  UNL1        0.0190
     15 C          61.3224   90.3647    7.8039 C.ar    1  UNL1        0.0160
     16 C          60.4608   89.9396    6.6521 C.ar    1  UNL1        0.0480
     17 C          59.8031   88.5916    6.6648 C.ar    1  UNL1        0.0160
     18 C          60.0071   87.6686    7.8295 C.ar    1  UNL1        0.0190
     19 N          61.8698   85.3451   11.5326 N.ar    1  UNL1       -0.2024
     20 N          60.9032   86.1557   12.3442 N.ar    1  UNL1       -0.1442
     21 C          60.4106   87.2839   11.4873 C.ar    1  UNL1        0.2073
     22 N          61.0727   87.1707   10.1461 N.ar    1  UNL1       -0.2398
     23 C          61.9745   85.9724   10.1741 C.ar    1  UNL1        0.3522
     24 O          62.8308   85.4867    9.0424 O.2     1  UNL1       -0.2444
     25 C          62.6029   84.1219   11.9978 C.3     1  UNL1        0.1099
     26 C          63.0222   83.9992   13.4328 C.3     1  UNL1        0.0265
     27 C          64.3435   82.6528   10.7480 C.3     1  UNL1        0.0021
     28 C          62.9169   83.0215   11.0280 C.3     1  UNL1        0.0245
     29 O          59.0329   96.4007   -1.5006 O.3     1  UNL1       -0.4727
     30 C          57.6656   96.5683   -2.0942 C.3     1  UNL1        0.2374
     31 C          57.0685   95.4707   -2.9241 C.3     1  UNL1        0.1909
     32 C          55.6496   94.9885   -2.8592 C.3     1  UNL1        0.1783
     33 O          55.4896   93.8824   -3.8596 O.3     1  UNL1       -0.3266
     34 C          56.8098   93.6809   -4.5429 C.3     1  UNL1        0.2315
     35 O          57.7855   94.6625   -3.9647 O.3     1  UNL1       -0.3254
     36 C          56.0779   92.6104   -5.2968 C.ar    1  UNL1        0.0410
     37 C          55.7155   92.8216   -6.7370 C.ar    1  UNL1        0.0022
     38 C          54.9836   91.7511   -7.4910 C.ar    1  UNL1        0.0113
     39 C          54.6143   90.4695   -6.8049 C.ar    1  UNL1        0.0585
     40 CL         53.8825   89.3990   -7.5588 Cl      1  UNL1       -0.0822
     41 C          54.9767   90.2582   -5.3647 C.ar    1  UNL1        0.0226
     42 C          55.7086   91.3287   -4.6107 C.ar    1  UNL1        0.0591
     43 CL         56.0710   91.1175   -3.1705 Cl      1  UNL1       -0.0824
     44 C          57.9768   93.2556   -5.3838 C.3     1  UNL1        0.1897
     45 N          58.7725   94.2809   -6.1359 N.ar    1  UNL1       -0.2246
     46 C          58.2116   95.3992   -6.9632 C.ar    1  UNL1        0.1974
     47 N          59.3612   96.1773   -7.5314 N.ar    1  UNL1       -0.2007
     48 C          60.6327   95.5399   -7.0551 C.ar    1  UNL1        0.2210
     49 N          60.2689   94.3678   -6.1927 N.ar    1  UNL1       -0.1450
@<TRIPOS>BOND
     1    27    28    1
     2    28    25    1
     3    25    26    1
     4    25    19    1
     5    19    20   ar
     6    20    21   ar
     7    21    22   ar
     8    22    13    1
     9    13    14   ar
    10    14    15   ar
    11    15    16   ar
    12    16     7    1
    13     7     8    1
    14     8     9    1
    15     9    10    1
    16    10     1    1
    17     1     2   ar
    18     2     3   ar
    19     3     4   ar
    20     4    29    1
    21    29    30    1
    22    31    30    1
    23    31    32    1
    24    32    33    1
    25    33    34    1
    26    34    44    1
    27    44    45    1
    28    45    46   ar
    29    46    47   ar
    30    47    48   ar
    31    48    49   ar
    32    34    36    1
    33    36    37   ar
    34    37    38   ar
    35    38    39   ar
    36    39    40    1
    37    39    41   ar
    38    41    42   ar
    39    42    43    1
    40    34    35    1
    41     4     5   ar
    42     5     6   ar
    43    10    11    1
    44    11    12    1
    45    16    17   ar
    46    17    18   ar
    47    22    23   ar
    48    23    24    2
    49    23    19   ar
    50    18    13   ar
    51    12     7    1
    52     6     1   ar
    53    35    31    1
    54    49    45   ar
    55    42    36   ar
