@<TRIPOS>MOLECULE
*****
 37 41 0 0 0
SMALL
GASTEIGER

@<TRIPOS>ATOM
      1 C          63.5014   86.2087   16.6530 C.3     1  UNL1        0.0666
      2 S          62.7483   87.4514   17.0252 S.3     1  UNL1       -0.0756
      3 C          64.2403   87.9636   14.1684 C.3     1  UNL1        0.1340
      4 N          63.8662   89.0166   15.1690 N.ar    1  UNL1       -0.2884
      5 C          63.1804   88.7812   16.4822 C.ar    1  UNL1        0.1932
      6 N          63.0026   90.1090   17.1569 N.ar    1  UNL1       -0.1221
      7 N          63.5786   91.1651   16.2608 N.ar    1  UNL1       -0.1282
      8 C          64.1123   90.4899   15.0322 C.ar    1  UNL1        0.1668
      9 C          64.7757   91.1689   13.8708 C.ar    1  UNL1        0.0360
     10 C          66.1724   91.6981   14.0092 C.ar    1  UNL1        0.0032
     11 C          66.8357   92.3771   12.8478 C.ar    1  UNL1        0.0047
     12 C          66.1024   92.5270   11.5480 C.ar    1  UNL1        0.0536
     13 C          64.7057   91.9978   11.4095 C.ar    1  UNL1        0.0047
     14 C          64.0423   91.3188   12.5709 C.ar    1  UNL1        0.0032
     15 C          66.7657   93.2060   10.3865 C.ar    1  UNL1        0.2299
     16 N          67.9043   92.6583    9.5779 N.ar    1  UNL1       -0.2065
     17 C          68.2492   93.6657    8.5214 C.ar    1  UNL1        0.1427
     18 C          67.3239   94.8360    8.6771 C.ar    1  UNL1        0.2021
     19 O          66.4070   94.5518    9.8298 O.2     1  UNL1       -0.4314
     20 C          62.8025   85.0971   15.9277 C.3     1  UNL1        0.0294
     21 C          63.5991   83.9810   15.3196 C.3     1  UNL1        0.0732
     22 N          63.5904   83.7763   13.8336 N.3     1  UNL1       -0.2682
     23 C          64.3648   82.6434   13.2281 C.3     1  UNL1        0.1046
     24 C          64.3561   82.4388   11.7422 C.3     1  UNL1        0.1598
     25 O          63.5730   83.3671   10.8618 O.3     1  UNL1       -0.3489
     26 C          62.7986   84.5000   11.4674 C.3     1  UNL1        0.1534
     27 C          62.8073   84.7046   12.9533 C.3     1  UNL1        0.1067
     28 C          62.0154   85.4283   10.5870 C.ar    1  UNL1        0.0059
     29 C          61.1613   86.4992   11.1982 C.ar    1  UNL1       -0.0020
     30 C          60.3782   87.4275   10.3178 C.ar    1  UNL1        0.0036
     31 C          60.4492   87.2848    8.8263 C.ar    1  UNL1        0.0714
     32 C          61.3033   86.2139    8.2152 C.ar    1  UNL1        0.0036
     33 C          62.0865   85.2856    9.0956 C.ar    1  UNL1       -0.0020
     34 C          59.6661   88.2131    7.9460 C.3     1  UNL1        0.4186
     35 F          58.8830   89.1414    7.0657 F       1  UNL1       -0.1659
     36 F          60.4308   89.3803    8.4964 F       1  UNL1       -0.1659
     37 F          58.9013   87.0460    7.3956 F       1  UNL1       -0.1659
@<TRIPOS>BOND
     1     3     4    1
     2     4     5   ar
     3     5     2    1
     4     2     1    1
     5     1    20    1
     6    20    21    1
     7    21    22    1
     8    22    23    1
     9    23    24    1
    10    24    25    1
    11    25    26    1
    12    26    28    1
    13    28    29   ar
    14    29    30   ar
    15    30    31   ar
    16    31    34    1
    17    34    35    1
    18    34    36    1
    19    34    37    1
    20    31    32   ar
    21    32    33   ar
    22    26    27    1
    23     5     6   ar
    24     6     7   ar
    25     7     8   ar
    26     8     9    1
    27     9    10   ar
    28    10    11   ar
    29    11    12   ar
    30    12    15    1
    31    15    16   ar
    32    16    17   ar
    33    17    18   ar
    34    18    19   ar
    35    12    13   ar
    36    13    14   ar
    37     8     4   ar
    38    14     9   ar
    39    27    22    1
    40    19    15   ar
    41    33    28   ar
@<TRIPOS>MOLECULE
*****
 37 41 0 0 0
SMALL
GASTEIGER

@<TRIPOS>ATOM
      1 C          60.6834   87.0707    8.4042 C.3     1  UNL1        0.0666
      2 S          59.7402   87.7259    9.3691 S.3     1  UNL1       -0.0756
      3 C          62.7982   88.8021    9.7429 C.3     1  UNL1        0.1340
      4 N          61.6830   88.9529   10.7347 N.ar    1  UNL1       -0.2884
      5 C          60.2774   88.4583   10.5628 C.ar    1  UNL1        0.1932
      6 N          59.5033   88.8246   11.7943 N.ar    1  UNL1       -0.1221
      7 N          60.4304   89.5456   12.7272 N.ar    1  UNL1       -0.1282
      8 C          61.7777   89.6249   12.0724 C.ar    1  UNL1        0.1668
      9 C          63.0041   90.2641   12.6532 C.ar    1  UNL1        0.0360
     10 C          63.5197   89.8199   13.9899 C.ar    1  UNL1        0.0032
     11 C          64.7462   90.4590   14.5708 C.ar    1  UNL1        0.0047
     12 C          65.4569   91.5422   13.8150 C.ar    1  UNL1        0.0536
     13 C          64.9413   91.9864   12.4782 C.ar    1  UNL1        0.0047
     14 C          63.7148   91.3473   11.8974 C.ar    1  UNL1        0.0032
     15 C          66.6833   92.1814   14.3958 C.ar    1  UNL1        0.2299
     16 N          68.0896   91.9959   13.9077 N.ar    1  UNL1       -0.2065
     17 C          68.9942   92.8180   14.7770 C.ar    1  UNL1        0.1427
     18 C          68.1471   93.5117   15.8023 C.ar    1  UNL1        0.2021
     19 O          66.7190   93.1182   15.5667 O.2     1  UNL1       -0.4314
     20 C          61.1121   85.6498    8.6222 C.3     1  UNL1        0.0294
     21 C          62.5706   85.2998    8.6336 C.3     1  UNL1        0.0732
     22 N          63.1665   84.6075    9.8235 N.3     1  UNL1       -0.2682
     23 C          63.9368   83.3333    9.6419 C.3     1  UNL1        0.1046
     24 C          64.5326   82.6411   10.8317 C.3     1  UNL1        0.1598
     25 O          64.3581   83.2230   12.2031 O.3     1  UNL1       -0.3489
     26 C          63.5878   84.4972   12.3848 C.3     1  UNL1        0.1534
     27 C          62.9919   85.1894   11.1950 C.3     1  UNL1        0.1067
     28 C          63.4133   85.0791   13.7562 C.ar    1  UNL1        0.0059
     29 C          62.4535   84.4492   14.7217 C.ar    1  UNL1       -0.0020
     30 C          62.2790   85.0311   16.0931 C.ar    1  UNL1        0.0036
     31 C          63.0642   86.2429   16.4992 C.ar    1  UNL1        0.0714
     32 C          64.0240   86.8728   15.5338 C.ar    1  UNL1        0.0036
     33 C          64.1985   86.2909   14.1623 C.ar    1  UNL1       -0.0020
     34 C          62.8897   86.8248   17.8706 C.3     1  UNL1        0.4186
     35 F          62.7152   87.4067   19.2421 F       1  UNL1       -0.1659
     36 F          62.3977   85.4990   18.3706 F       1  UNL1       -0.1659
     37 F          63.3817   88.1507   17.3707 F       1  UNL1       -0.1659
@<TRIPOS>BOND
     1     3     4    1
     2     4     5   ar
     3     5     2    1
     4     2     1    1
     5     1    20    1
     6    20    21    1
     7    21    22    1
     8    22    23    1
     9    23    24    1
    10    24    25    1
    11    25    26    1
    12    26    28    1
    13    28    29   ar
    14    29    30   ar
    15    30    31   ar
    16    31    34    1
    17    34    35    1
    18    34    36    1
    19    34    37    1
    20    31    32   ar
    21    32    33   ar
    22    26    27    1
    23     5     6   ar
    24     6     7   ar
    25     7     8   ar
    26     8     9    1
    27     9    10   ar
    28    10    11   ar
    29    11    12   ar
    30    12    15    1
    31    15    16   ar
    32    16    17   ar
    33    17    18   ar
    34    18    19   ar
    35    12    13   ar
    36    13    14   ar
    37     8     4   ar
    38    14     9   ar
    39    27    22    1
    40    19    15   ar
    41    33    28   ar
@<TRIPOS>MOLECULE
*****
 37 41 0 0 0
SMALL
GASTEIGER

@<TRIPOS>ATOM
      1 C          59.5982   87.1343    8.1702 C.3     1  UNL1        0.0666
      2 S          59.7670   87.2510    9.6561 S.3     1  UNL1       -0.0756
      3 C          62.6382   87.4004   11.1998 C.3     1  UNL1        0.1340
      4 N          61.7076   88.5512   10.9555 N.ar    1  UNL1       -0.2884
      5 C          60.3878   88.4825   10.2459 C.ar    1  UNL1        0.1932
      6 N          59.7978   89.8615   10.2298 N.ar    1  UNL1       -0.1221
      7 N          60.7530   90.7825   10.9294 N.ar    1  UNL1       -0.1282
      8 C          61.9333   89.9726   11.3779 C.ar    1  UNL1        0.1668
      9 C          63.1293   90.4929   12.1188 C.ar    1  UNL1        0.0360
     10 C          63.9857   91.5606   11.5050 C.ar    1  UNL1        0.0032
     11 C          65.1817   92.0809   12.2458 C.ar    1  UNL1        0.0047
     12 C          65.5213   91.5336   13.6004 C.ar    1  UNL1        0.0536
     13 C          64.6649   90.4660   14.2143 C.ar    1  UNL1        0.0047
     14 C          63.4689   89.9457   13.4734 C.ar    1  UNL1        0.0032
     15 C          66.7173   92.0539   14.3413 C.ar    1  UNL1        0.2299
     16 N          66.7043   92.6945   15.6976 N.ar    1  UNL1       -0.2065
     17 C          68.1152   93.0615   16.0505 C.ar    1  UNL1        0.1427
     18 C          69.0003   92.6478   14.9123 C.ar    1  UNL1        0.2021
     19 O          68.1363   92.0251   13.8560 O.2     1  UNL1       -0.4314
     20 C          59.0684   88.2954    7.3820 C.3     1  UNL1        0.0294
     21 C          59.9981   89.3833    6.9324 C.3     1  UNL1        0.0732
     22 N          59.5551   90.3641    5.8874 N.3     1  UNL1       -0.2682
     23 C          58.1057   90.7321    5.7706 C.3     1  UNL1        0.1046
     24 C          57.6628   91.7128    4.7256 C.3     1  UNL1        0.1598
     25 O          58.6693   92.3255    3.7975 O.3     1  UNL1       -0.3489
     26 C          60.1187   91.9575    3.9143 C.3     1  UNL1        0.1534
     27 C          60.5616   90.9768    4.9592 C.3     1  UNL1        0.1067
     28 C          61.1253   92.5702    2.9861 C.ar    1  UNL1        0.0059
     29 C          60.7297   93.7143    2.1003 C.ar    1  UNL1       -0.0020
     30 C          61.7363   94.3270    1.1722 C.ar    1  UNL1        0.0036
     31 C          63.1383   93.7957    1.1298 C.ar    1  UNL1        0.0714
     32 C          63.5339   92.6516    2.0156 C.ar    1  UNL1        0.0036
     33 C          62.5273   92.0389    2.9437 C.ar    1  UNL1       -0.0020
     34 C          64.1449   94.4084    0.2016 C.3     1  UNL1        0.4186
     35 F          65.1514   95.0211   -0.7265 F       1  UNL1       -0.1659
     36 F          63.3053   95.6480    0.1095 F       1  UNL1       -0.1659
     37 F          64.9844   93.1688    0.2938 F       1  UNL1       -0.1659
@<TRIPOS>BOND
     1     3     4    1
     2     4     5   ar
     3     5     2    1
     4     2     1    1
     5     1    20    1
     6    20    21    1
     7    21    22    1
     8    22    23    1
     9    23    24    1
    10    24    25    1
    11    25    26    1
    12    26    28    1
    13    28    29   ar
    14    29    30   ar
    15    30    31   ar
    16    31    34    1
    17    34    35    1
    18    34    36    1
    19    34    37    1
    20    31    32   ar
    21    32    33   ar
    22    26    27    1
    23     5     6   ar
    24     6     7   ar
    25     7     8   ar
    26     8     9    1
    27     9    10   ar
    28    10    11   ar
    29    11    12   ar
    30    12    15    1
    31    15    16   ar
    32    16    17   ar
    33    17    18   ar
    34    18    19   ar
    35    12    13   ar
    36    13    14   ar
    37     8     4   ar
    38    14     9   ar
    39    27    22    1
    40    19    15   ar
    41    33    28   ar
@<TRIPOS>MOLECULE
*****
 37 41 0 0 0
SMALL
GASTEIGER

@<TRIPOS>ATOM
      1 C          60.1399   89.0346    8.1039 C.3     1  UNL1        0.0666
      2 S          59.7040   89.8776    9.2655 S.3     1  UNL1       -0.0756
      3 C          62.6444   91.2314    9.6789 C.3     1  UNL1        0.1340
      4 N          61.8558   90.4998   10.7243 N.ar    1  UNL1       -0.2884
      5 C          60.5042   89.8775   10.5342 C.ar    1  UNL1        0.1932
      6 N          60.0933   89.2552   11.8357 N.ar    1  UNL1       -0.1221
      7 N          61.1909   89.4928   12.8301 N.ar    1  UNL1       -0.1282
      8 C          62.2802   90.2620   12.1432 C.ar    1  UNL1        0.1668
      9 C          63.5678   90.7141   12.7659 C.ar    1  UNL1        0.0360
     10 C          64.0937   90.0213   13.9879 C.ar    1  UNL1        0.0032
     11 C          65.3813   90.4734   14.6106 C.ar    1  UNL1        0.0047
     12 C          66.1429   91.6182   14.0113 C.ar    1  UNL1        0.0536
     13 C          65.6170   92.3109   12.7892 C.ar    1  UNL1        0.0047
     14 C          64.3294   91.8589   12.1665 C.ar    1  UNL1        0.0032
     15 C          67.4305   92.0702   14.6340 C.ar    1  UNL1        0.2299
     16 N          67.6644   92.3174   16.0949 N.ar    1  UNL1       -0.2065
     17 C          69.0887   92.7544   16.2689 C.ar    1  UNL1        0.1427
     18 C          69.7352   92.7774   14.9156 C.ar    1  UNL1        0.2021
     19 O          68.7103   92.3545   13.9052 O.2     1  UNL1       -0.4314
     20 C          59.1691   88.0938    7.4539 C.3     1  UNL1        0.0294
     21 C          59.2471   86.6226    7.7358 C.3     1  UNL1        0.0732
     22 N          60.5565   86.0016    8.1231 N.3     1  UNL1       -0.2682
     23 C          61.4438   85.4048    7.0712 C.3     1  UNL1        0.1046
     24 C          62.7531   84.7838    7.4585 C.3     1  UNL1        0.1598
     25 O          63.1752   84.7597    8.8977 O.3     1  UNL1       -0.3489
     26 C          62.2879   85.3565    9.9496 C.3     1  UNL1        0.1534
     27 C          60.9786   85.9774    9.5623 C.3     1  UNL1        0.1067
     28 C          62.7100   85.3323   11.3888 C.ar    1  UNL1        0.0059
     29 C          62.7443   84.0336   12.1386 C.ar    1  UNL1       -0.0020
     30 C          63.1663   84.0094   13.5778 C.ar    1  UNL1        0.0036
     31 C          63.5541   85.2839   14.2672 C.ar    1  UNL1        0.0714
     32 C          63.5197   86.5826   13.5174 C.ar    1  UNL1        0.0036
     33 C          63.0977   86.6068   12.0782 C.ar    1  UNL1       -0.0020
     34 C          63.9761   85.2597   15.7064 C.3     1  UNL1        0.4186
     35 F          64.3982   85.2356   17.1456 F       1  UNL1       -0.1659
     36 F          63.8816   86.7558   15.7592 F       1  UNL1       -0.1659
     37 F          64.0707   83.7637   15.6535 F       1  UNL1       -0.1659
@<TRIPOS>BOND
     1     3     4    1
     2     4     5   ar
     3     5     2    1
     4     2     1    1
     5     1    20    1
     6    20    21    1
     7    21    22    1
     8    22    23    1
     9    23    24    1
    10    24    25    1
    11    25    26    1
    12    26    28    1
    13    28    29   ar
    14    29    30   ar
    15    30    31   ar
    16    31    34    1
    17    34    35    1
    18    34    36    1
    19    34    37    1
    20    31    32   ar
    21    32    33   ar
    22    26    27    1
    23     5     6   ar
    24     6     7   ar
    25     7     8   ar
    26     8     9    1
    27     9    10   ar
    28    10    11   ar
    29    11    12   ar
    30    12    15    1
    31    15    16   ar
    32    16    17   ar
    33    17    18   ar
    34    18    19   ar
    35    12    13   ar
    36    13    14   ar
    37     8     4   ar
    38    14     9   ar
    39    27    22    1
    40    19    15   ar
    41    33    28   ar
