@<TRIPOS>MOLECULE
*****
 38 42 0 0 0
SMALL
GASTEIGER

@<TRIPOS>ATOM
      1 C          61.5673   94.5097    0.1733 C.3     1  UNL1        0.0776
      2 C          59.3104   95.7384   -0.2103 C.ar    1  UNL1        0.2211
      3 N          57.9537   95.7944   -0.8475 N.ar    1  UNL1       -0.2119
      4 C          57.4969   94.6774   -1.7385 C.ar    1  UNL1        0.0844
      5 C          56.1402   94.7333   -2.3758 C.ar    1  UNL1        0.0197
      6 C          55.6835   93.6164   -3.2667 C.ar    1  UNL1        0.0082
      7 C          56.5835   92.4435   -3.5204 C.ar    1  UNL1        0.0347
      8 BR         56.1268   91.3265   -4.4114 Br      1  UNL1       -0.0490
      9 C          57.9403   92.3876   -2.8832 C.ar    1  UNL1        0.0082
     10 C          58.3970   93.5045   -1.9922 C.ar    1  UNL1        0.0181
     11 C          59.7538   93.4486   -1.3549 C.ar    1  UNL1        0.0023
     12 C          60.2105   94.5656   -0.4640 C.ar    1  UNL1        0.0373
     13 C          59.6874   96.7063    2.1711 C.3     1  UNL1        0.2542
     14 O          59.7672   96.8554    0.6807 O.3     1  UNL1       -0.4563
     15 C          61.8422   93.5200    1.2664 C.ar    1  UNL1       -0.0157
     16 C          60.7658   93.1724    2.2516 C.ar    1  UNL1       -0.0039
     17 C          61.0408   92.1827    3.3447 C.ar    1  UNL1       -0.0003
     18 C          62.3921   91.5406    3.4527 C.ar    1  UNL1       -0.0000
     19 C          63.4686   91.8883    2.4675 C.ar    1  UNL1       -0.0003
     20 C          63.1936   92.8780    1.3744 C.ar    1  UNL1       -0.0039
     21 C          62.6490   95.4435   -0.2825 C.3     1  UNL1        0.1158
     22 O          62.5159   96.2206    0.9935 O.3     1  UNL1       -0.3820
     23 H          63.1820   95.9152    1.6291 H       1  UNL1        0.2107
     24 C          62.7821   94.6663   -1.5586 C.ar    1  UNL1        0.0024
     25 C          63.6143   93.4188   -1.5936 C.ar    1  UNL1       -0.0020
     26 C          63.7474   92.6416   -2.8696 C.ar    1  UNL1       -0.0002
     27 C          63.0484   93.1120   -4.1107 C.ar    1  UNL1       -0.0000
     28 C          62.2163   94.3595   -4.0757 C.ar    1  UNL1       -0.0002
     29 C          61.5173   94.8299   -5.3167 C.ar    1  UNL1       -0.0000
     30 C          60.6851   96.0774   -5.2817 C.ar    1  UNL1       -0.0000
     31 C          60.5520   96.8546   -4.0056 C.ar    1  UNL1       -0.0000
     32 C          61.2510   96.3842   -2.7646 C.ar    1  UNL1       -0.0002
     33 C          62.0831   95.1367   -2.7996 C.ar    1  UNL1       -0.0018
     34 C          63.7308   96.3773   -0.7384 C.3     1  UNL1        0.0491
     35 C          64.9334   96.6112    0.1270 C.3     1  UNL1        0.0750
     36 N          65.2615   95.6500    1.2309 N.3     1  UNL1       -0.2702
     37 C          65.0347   96.0438    2.6603 C.3     1  UNL1        0.0897
     38 C          65.8165   94.2950    0.9053 C.3     1  UNL1        0.0897
@<TRIPOS>BOND
     1    13    14    1
     2    14     2    1
     3     2     3   ar
     4     3     4   ar
     5     4     5   ar
     6     5     6   ar
     7     6     7   ar
     8     7     8    1
     9     7     9   ar
    10     9    10   ar
    11    10    11   ar
    12    11    12   ar
    13     1    12    1
    14     1    15    1
    15    15    16   ar
    16    16    17   ar
    17    17    18   ar
    18    18    19   ar
    19    19    20   ar
    20     1    21    1
    21    21    22    1
    22    21    34    1
    23    34    35    1
    24    35    36    1
    25    36    37    1
    26    36    38    1
    27    21    24    1
    28    24    25   ar
    29    25    26   ar
    30    26    27   ar
    31    27    28   ar
    32    28    29   ar
    33    29    30   ar
    34    30    31   ar
    35    31    32   ar
    36    32    33   ar
    37    12     2   ar
    38    20    15   ar
    39    33    24   ar
    40    10     4   ar
    41    33    28   ar
    42    22    23    1
@<TRIPOS>MOLECULE
*****
 38 42 0 0 0
SMALL
GASTEIGER

@<TRIPOS>ATOM
      1 C          65.1528   91.4696   13.9225 C.3     1  UNL1        0.0776
      2 C          63.7842   90.6440   15.9708 C.ar    1  UNL1        0.2211
      3 N          63.2020   89.5210   16.7769 N.ar    1  UNL1       -0.2119
      4 C          63.4060   88.1003   16.3407 C.ar    1  UNL1        0.0844
      5 C          62.8238   86.9773   17.1468 C.ar    1  UNL1        0.0197
      6 C          63.0279   85.5567   16.7106 C.ar    1  UNL1        0.0082
      7 C          63.8142   85.2592   15.4683 C.ar    1  UNL1        0.0347
      8 BR         64.0183   83.8385   15.0322 Br      1  UNL1       -0.0490
      9 C          64.3965   86.3822   14.6623 C.ar    1  UNL1        0.0082
     10 C          64.1924   87.8028   15.0985 C.ar    1  UNL1        0.0181
     11 C          64.7746   88.9259   14.2924 C.ar    1  UNL1        0.0023
     12 C          64.5705   90.3464   14.7286 C.ar    1  UNL1        0.0373
     13 C          64.5846   92.7254   17.3039 C.3     1  UNL1        0.2542
     14 O          63.5801   92.0646   16.4070 O.3     1  UNL1       -0.4563
     15 C          66.3348   92.2322   14.4433 C.ar    1  UNL1       -0.0157
     16 C          67.4304   91.5119   15.1717 C.ar    1  UNL1       -0.0039
     17 C          68.6124   92.2745   15.6925 C.ar    1  UNL1       -0.0003
     18 C          68.6988   93.7575   15.4848 C.ar    1  UNL1       -0.0000
     19 C          67.6032   94.4779   14.7563 C.ar    1  UNL1       -0.0003
     20 C          66.4212   93.7153   14.2356 C.ar    1  UNL1       -0.0039
     21 C          64.5530   91.8300   12.5958 C.3     1  UNL1        0.1158
     22 O          63.1788   91.6293   13.1625 O.3     1  UNL1       -0.3820
     23 H          62.8187   92.4837   13.4476 H       1  UNL1        0.2107
     24 C          65.9272   92.0307   12.0291 C.ar    1  UNL1        0.0024
     25 C          67.0144   91.0420   12.3302 C.ar    1  UNL1       -0.0020
     26 C          68.3887   91.2427   11.7635 C.ar    1  UNL1       -0.0002
     27 C          68.6757   92.4320   10.8956 C.ar    1  UNL1       -0.0000
     28 C          67.5886   93.4206   10.5945 C.ar    1  UNL1       -0.0002
     29 C          67.8757   94.6099    9.7266 C.ar    1  UNL1       -0.0000
     30 C          66.7885   95.5985    9.4254 C.ar    1  UNL1       -0.0000
     31 C          65.4142   95.3978    9.9922 C.ar    1  UNL1       -0.0000
     32 C          65.1272   94.2085   10.8600 C.ar    1  UNL1       -0.0002
     33 C          66.2143   93.2199   11.1612 C.ar    1  UNL1       -0.0018
     34 C          63.9532   92.1904   11.2690 C.3     1  UNL1        0.0491
     35 C          63.4066   91.1160   10.3763 C.3     1  UNL1        0.0750
     36 N          62.3255   90.2039   10.8758 N.3     1  UNL1       -0.2702
     37 C          62.6756   88.8435   11.4018 C.3     1  UNL1        0.0897
     38 C          60.8944   90.6523   10.8492 C.3     1  UNL1        0.0897
@<TRIPOS>BOND
     1    13    14    1
     2    14     2    1
     3     2     3   ar
     4     3     4   ar
     5     4     5   ar
     6     5     6   ar
     7     6     7   ar
     8     7     8    1
     9     7     9   ar
    10     9    10   ar
    11    10    11   ar
    12    11    12   ar
    13     1    12    1
    14     1    15    1
    15    15    16   ar
    16    16    17   ar
    17    17    18   ar
    18    18    19   ar
    19    19    20   ar
    20     1    21    1
    21    21    22    1
    22    21    34    1
    23    34    35    1
    24    35    36    1
    25    36    37    1
    26    36    38    1
    27    21    24    1
    28    24    25   ar
    29    25    26   ar
    30    26    27   ar
    31    27    28   ar
    32    28    29   ar
    33    29    30   ar
    34    30    31   ar
    35    31    32   ar
    36    32    33   ar
    37    12     2   ar
    38    20    15   ar
    39    33    24   ar
    40    10     4   ar
    41    33    28   ar
    42    22    23    1
@<TRIPOS>MOLECULE
*****
 38 42 0 0 0
SMALL
GASTEIGER

@<TRIPOS>ATOM
      1 C          60.7579   94.2536   -2.4950 C.3     1  UNL1        0.0776
      2 C          59.4746   95.3961   -4.4438 C.ar    1  UNL1        0.2211
      3 N          58.3909   95.3647   -5.4804 N.ar    1  UNL1       -0.2119
      4 C          57.5066   94.1594   -5.6048 C.ar    1  UNL1        0.0844
      5 C          56.4229   94.1281   -6.6414 C.ar    1  UNL1        0.0197
      6 C          55.5388   92.9228   -6.7659 C.ar    1  UNL1        0.0082
      7 C          55.7383   91.7489   -5.8537 C.ar    1  UNL1        0.0347
      8 BR         54.8541   90.5435   -5.9781 Br      1  UNL1       -0.0490
      9 C          56.8220   91.7802   -4.8171 C.ar    1  UNL1        0.0082
     10 C          57.7062   92.9855   -4.6927 C.ar    1  UNL1        0.0181
     11 C          58.7900   93.0169   -3.6560 C.ar    1  UNL1        0.0023
     12 C          59.6741   94.2222   -3.5316 C.ar    1  UNL1        0.0373
     13 C          61.4278   96.8559   -5.3403 C.3     1  UNL1        0.2542
     14 O          60.3588   96.6014   -4.3193 O.3     1  UNL1       -0.4563
     15 C          60.5318   94.9670   -1.1950 C.ar    1  UNL1       -0.0157
     16 C          61.3897   96.1402   -0.8243 C.ar    1  UNL1       -0.0039
     17 C          61.1637   96.8537    0.4757 C.ar    1  UNL1       -0.0003
     18 C          60.0797   96.3939    1.4049 C.ar    1  UNL1       -0.0000
     19 C          59.2217   95.2206    1.0342 C.ar    1  UNL1       -0.0003
     20 C          59.4478   94.5072   -0.2657 C.ar    1  UNL1       -0.0039
     21 C          62.0676   93.5716   -2.7583 C.3     1  UNL1        0.1158
     22 O          61.9852   93.9708   -4.2019 O.3     1  UNL1       -0.3820
     23 H          62.4926   94.7856   -4.3415 H       1  UNL1        0.2107
     24 C          62.1500   93.1724   -1.3148 C.ar    1  UNL1        0.0024
     25 C          61.1881   92.1643   -0.7593 C.ar    1  UNL1       -0.0020
     26 C          61.2704   91.7651    0.6842 C.ar    1  UNL1       -0.0002
     27 C          62.3147   92.3739    1.5723 C.ar    1  UNL1       -0.0000
     28 C          63.2766   93.3820    1.0169 C.ar    1  UNL1       -0.0002
     29 C          64.3209   93.9908    1.9050 C.ar    1  UNL1       -0.0000
     30 C          65.2829   94.9989    1.3495 C.ar    1  UNL1       -0.0000
     31 C          65.2005   95.3981   -0.0940 C.ar    1  UNL1       -0.0000
     32 C          64.1562   94.7893   -0.9821 C.ar    1  UNL1       -0.0002
     33 C          63.1943   93.7812   -0.4267 C.ar    1  UNL1       -0.0018
     34 C          63.3773   92.8896   -3.0217 C.3     1  UNL1        0.0491
     35 C          63.6639   92.3135   -4.3767 C.3     1  UNL1        0.0750
     36 N          64.7343   92.9169   -5.2371 N.3     1  UNL1       -0.2702
     37 C          65.1584   94.3392   -5.0197 C.3     1  UNL1        0.0897
     38 C          65.3806   92.0980   -6.3149 C.3     1  UNL1        0.0897
@<TRIPOS>BOND
     1    13    14    1
     2    14     2    1
     3     2     3   ar
     4     3     4   ar
     5     4     5   ar
     6     5     6   ar
     7     6     7   ar
     8     7     8    1
     9     7     9   ar
    10     9    10   ar
    11    10    11   ar
    12    11    12   ar
    13     1    12    1
    14     1    15    1
    15    15    16   ar
    16    16    17   ar
    17    17    18   ar
    18    18    19   ar
    19    19    20   ar
    20     1    21    1
    21    21    22    1
    22    21    34    1
    23    34    35    1
    24    35    36    1
    25    36    37    1
    26    36    38    1
    27    21    24    1
    28    24    25   ar
    29    25    26   ar
    30    26    27   ar
    31    27    28   ar
    32    28    29   ar
    33    29    30   ar
    34    30    31   ar
    35    31    32   ar
    36    32    33   ar
    37    12     2   ar
    38    20    15   ar
    39    33    24   ar
    40    10     4   ar
    41    33    28   ar
    42    22    23    1
@<TRIPOS>MOLECULE
*****
 38 42 0 0 0
SMALL
GASTEIGER

@<TRIPOS>ATOM
      1 C          60.5551   94.6709   -2.7778 C.3     1  UNL1        0.0776
      2 C          62.6950   95.8036   -1.8354 C.ar    1  UNL1        0.2211
      3 N          64.0760   96.3497   -2.0463 N.ar    1  UNL1       -0.2119
      4 C          64.6982   96.3094   -3.4106 C.ar    1  UNL1        0.0844
      5 C          66.0792   96.8556   -3.6215 C.ar    1  UNL1        0.0197
      6 C          66.7014   96.8153   -4.9858 C.ar    1  UNL1        0.0082
      7 C          65.9425   96.2288   -6.1391 C.ar    1  UNL1        0.0347
      8 BR         66.5648   96.1885   -7.5034 Br      1  UNL1       -0.0490
      9 C          64.5615   95.6826   -5.9282 C.ar    1  UNL1        0.0082
     10 C          63.9394   95.7229   -4.5639 C.ar    1  UNL1        0.0181
     11 C          62.5583   95.1768   -4.3530 C.ar    1  UNL1        0.0023
     12 C          61.9362   95.2171   -2.9887 C.ar    1  UNL1        0.0373
     13 C          62.9236   96.1179    0.7335 C.3     1  UNL1        0.2542
     14 O          62.0728   95.8439   -0.4711 O.3     1  UNL1       -0.4563
     15 C          59.4858   94.9203   -3.7997 C.ar    1  UNL1       -0.0157
     16 C          58.9251   96.3002   -3.9770 C.ar    1  UNL1       -0.0039
     17 C          57.8557   96.5497   -4.9989 C.ar    1  UNL1       -0.0003
     18 C          57.3471   95.4192   -5.8435 C.ar    1  UNL1       -0.0000
     19 C          57.9078   94.0392   -5.6662 C.ar    1  UNL1       -0.0003
     20 C          58.9771   93.7898   -4.6442 C.ar    1  UNL1       -0.0039
     21 C          60.2434   93.8754   -1.5449 C.3     1  UNL1        0.1158
     22 O          61.5173   93.1033   -1.7211 O.3     1  UNL1       -0.3820
     23 H          62.2131   93.4979   -1.1724 H       1  UNL1        0.2107
     24 C          58.9696   94.6474   -1.3687 C.ar    1  UNL1        0.0024
     25 C          59.0164   96.0834   -0.9374 C.ar    1  UNL1       -0.0020
     26 C          57.7425   96.8554   -0.7612 C.ar    1  UNL1       -0.0002
     27 C          56.4218   96.1917   -1.0164 C.ar    1  UNL1       -0.0000
     28 C          56.3749   94.7558   -1.4477 C.ar    1  UNL1       -0.0002
     29 C          55.0542   94.0921   -1.7029 C.ar    1  UNL1       -0.0000
     30 C          55.0074   92.6562   -2.1343 C.ar    1  UNL1       -0.0000
     31 C          56.2813   91.8841   -2.3104 C.ar    1  UNL1       -0.0000
     32 C          57.6020   92.5478   -2.0553 C.ar    1  UNL1       -0.0002
     33 C          57.6488   93.9837   -1.6239 C.ar    1  UNL1       -0.0018
     34 C          59.9318   93.0798   -0.3121 C.3     1  UNL1        0.0491
     35 C          60.9943   92.2317    0.3217 C.3     1  UNL1        0.0750
     36 N          61.5426   92.5988    1.6688 N.3     1  UNL1       -0.2702
     37 C          60.6113   93.0051    2.7723 C.3     1  UNL1        0.0897
     38 C          63.0221   92.5597    1.9124 C.3     1  UNL1        0.0897
@<TRIPOS>BOND
     1    13    14    1
     2    14     2    1
     3     2     3   ar
     4     3     4   ar
     5     4     5   ar
     6     5     6   ar
     7     6     7   ar
     8     7     8    1
     9     7     9   ar
    10     9    10   ar
    11    10    11   ar
    12    11    12   ar
    13     1    12    1
    14     1    15    1
    15    15    16   ar
    16    16    17   ar
    17    17    18   ar
    18    18    19   ar
    19    19    20   ar
    20     1    21    1
    21    21    22    1
    22    21    34    1
    23    34    35    1
    24    35    36    1
    25    36    37    1
    26    36    38    1
    27    21    24    1
    28    24    25   ar
    29    25    26   ar
    30    26    27   ar
    31    27    28   ar
    32    28    29   ar
    33    29    30   ar
    34    30    31   ar
    35    31    32   ar
    36    32    33   ar
    37    12     2   ar
    38    20    15   ar
    39    33    24   ar
    40    10     4   ar
    41    33    28   ar
    42    22    23    1
@<TRIPOS>MOLECULE
*****
 38 42 0 0 0
SMALL
GASTEIGER

@<TRIPOS>ATOM
      1 C          59.0790   94.2909   -2.5191 C.3     1  UNL1        0.0776
      2 C          60.0220   95.9007   -4.3274 C.ar    1  UNL1        0.2211
      3 N          61.0733   96.2428   -5.3410 N.ar    1  UNL1       -0.2119
      4 C          62.2333   95.3172   -5.5601 C.ar    1  UNL1        0.0844
      5 C          63.2847   95.6593   -6.5738 C.ar    1  UNL1        0.0197
      6 C          64.4446   94.7338   -6.7928 C.ar    1  UNL1        0.0082
      7 C          64.5531   93.4662   -5.9983 C.ar    1  UNL1        0.0347
      8 BR         65.7131   92.5407   -6.2174 Br      1  UNL1       -0.0490
      9 C          63.5017   93.1241   -4.9846 C.ar    1  UNL1        0.0082
     10 C          62.3418   94.0496   -4.7655 C.ar    1  UNL1        0.0181
     11 C          61.2904   93.7075   -3.7518 C.ar    1  UNL1        0.0023
     12 C          60.1305   94.6330   -3.5328 C.ar    1  UNL1        0.0373
     13 C          57.5896   96.6292   -4.8778 C.3     1  UNL1        0.2542
     14 O          58.8620   96.8262   -4.1082 O.3     1  UNL1       -0.4563
     15 C          58.0542   93.2399   -2.8270 C.ar    1  UNL1       -0.0157
     16 C          58.0853   92.5255   -4.1456 C.ar    1  UNL1       -0.0039
     17 C          57.0604   91.4744   -4.4536 C.ar    1  UNL1       -0.0003
     18 C          56.0044   91.1377   -3.4430 C.ar    1  UNL1       -0.0000
     19 C          55.9732   91.8521   -2.1243 C.ar    1  UNL1       -0.0003
     20 C          56.9981   92.9032   -1.8164 C.ar    1  UNL1       -0.0039
     21 C          59.0525   94.9999   -1.1975 C.3     1  UNL1        0.1158
     22 O          57.9743   95.9097   -1.7072 O.3     1  UNL1       -0.3820
     23 H          57.1082   95.5703   -1.4324 H       1  UNL1        0.2107
     24 C          60.1307   94.0902   -0.6878 C.ar    1  UNL1        0.0024
     25 C          59.7677   92.7921   -0.0296 C.ar    1  UNL1       -0.0020
     26 C          60.8459   91.8823    0.4801 C.ar    1  UNL1       -0.0002
     27 C          62.2871   92.2707    0.3316 C.ar    1  UNL1       -0.0000
     28 C          62.6501   93.5687   -0.3265 C.ar    1  UNL1       -0.0002
     29 C          64.0914   93.9571   -0.4750 C.ar    1  UNL1       -0.0000
     30 C          64.4544   95.2552   -1.1331 C.ar    1  UNL1       -0.0000
     31 C          63.3762   96.1649   -1.6428 C.ar    1  UNL1       -0.0000
     32 C          61.9350   95.7766   -1.4944 C.ar    1  UNL1       -0.0002
     33 C          61.5719   94.4785   -0.8363 C.ar    1  UNL1       -0.0018
     34 C          59.0260   95.7089    0.1240 C.3     1  UNL1        0.0491
     35 C          60.0324   96.7809    0.4204 C.3     1  UNL1        0.0750
     36 N          60.7067   96.8271    1.7596 N.3     1  UNL1       -0.2702
     37 C          62.2041   96.8456    1.8451 C.3     1  UNL1        0.0897
     38 C          59.8835   96.8547    3.0132 C.3     1  UNL1        0.0897
@<TRIPOS>BOND
     1    13    14    1
     2    14     2    1
     3     2     3   ar
     4     3     4   ar
     5     4     5   ar
     6     5     6   ar
     7     6     7   ar
     8     7     8    1
     9     7     9   ar
    10     9    10   ar
    11    10    11   ar
    12    11    12   ar
    13     1    12    1
    14     1    15    1
    15    15    16   ar
    16    16    17   ar
    17    17    18   ar
    18    18    19   ar
    19    19    20   ar
    20     1    21    1
    21    21    22    1
    22    21    34    1
    23    34    35    1
    24    35    36    1
    25    36    37    1
    26    36    38    1
    27    21    24    1
    28    24    25   ar
    29    25    26   ar
    30    26    27   ar
    31    27    28   ar
    32    28    29   ar
    33    29    30   ar
    34    30    31   ar
    35    31    32   ar
    36    32    33   ar
    37    12     2   ar
    38    20    15   ar
    39    33    24   ar
    40    10     4   ar
    41    33    28   ar
    42    22    23    1
@<TRIPOS>MOLECULE
*****
 38 42 0 0 0
SMALL
GASTEIGER

@<TRIPOS>ATOM
      1 C          59.6166   94.7830   -2.6938 C.3     1  UNL1        0.0776
      2 C          60.3433   95.7325   -5.0004 C.ar    1  UNL1        0.2211
      3 N          61.2481   95.6901   -6.1960 N.ar    1  UNL1       -0.2119
      4 C          62.3312   94.6557   -6.2806 C.ar    1  UNL1        0.0844
      5 C          63.2360   94.6133   -7.4762 C.ar    1  UNL1        0.0197
      6 C          64.3190   93.5790   -7.5608 C.ar    1  UNL1        0.0082
      7 C          64.4972   92.5871   -6.4498 C.ar    1  UNL1        0.0347
      8 BR         65.5803   91.5528   -6.5344 Br      1  UNL1       -0.0490
      9 C          63.5924   92.6295   -5.2542 C.ar    1  UNL1        0.0082
     10 C          62.5094   93.6638   -5.1696 C.ar    1  UNL1        0.0181
     11 C          61.6045   93.7063   -3.9740 C.ar    1  UNL1        0.0023
     12 C          60.5215   94.7406   -3.8894 C.ar    1  UNL1        0.0373
     13 C          57.8703   96.4365   -5.3732 C.3     1  UNL1        0.2542
     14 O          59.2602   96.7668   -4.9158 O.3     1  UNL1       -0.4563
     15 C          58.5010   93.7891   -2.5619 C.ar    1  UNL1       -0.0157
     16 C          58.2860   92.7569   -3.6288 C.ar    1  UNL1       -0.0039
     17 C          57.1704   91.7630   -3.4970 C.ar    1  UNL1       -0.0003
     18 C          56.2697   91.8011   -2.2981 C.ar    1  UNL1       -0.0000
     19 C          56.4846   92.8333   -1.2311 C.ar    1  UNL1       -0.0003
     20 C          57.6003   93.8273   -1.3629 C.ar    1  UNL1       -0.0039
     21 C          59.8274   95.8194   -1.6301 C.3     1  UNL1        0.1158
     22 O          58.4719   96.3926   -1.9200 O.3     1  UNL1       -0.3820
     23 H          57.8255   96.0252   -1.2970 H       1  UNL1        0.2107
     24 C          61.1829   95.2462   -1.3402 C.ar    1  UNL1        0.0024
     25 C          62.3865   95.7582   -2.0746 C.ar    1  UNL1       -0.0020
     26 C          63.7419   95.1850   -1.7847 C.ar    1  UNL1       -0.0002
     27 C          63.8939   94.0997   -0.7604 C.ar    1  UNL1       -0.0000
     28 C          62.6904   93.5877   -0.0260 C.ar    1  UNL1       -0.0002
     29 C          62.8424   92.5025    0.9983 C.ar    1  UNL1       -0.0000
     30 C          61.6388   91.9905    1.7327 C.ar    1  UNL1       -0.0000
     31 C          60.2833   92.5637    1.4428 C.ar    1  UNL1       -0.0000
     32 C          60.1314   93.6489    0.4185 C.ar    1  UNL1       -0.0002
     33 C          61.3348   94.1609   -0.3159 C.ar    1  UNL1       -0.0018
     34 C          60.0382   96.8557   -0.5664 C.3     1  UNL1        0.0491
     35 C          59.4243   96.6739    0.7901 C.3     1  UNL1        0.0750
     36 N          60.2744   96.7933    2.0202 N.3     1  UNL1       -0.2702
     37 C          61.7680   96.8552    1.8965 C.3     1  UNL1        0.0897
     38 C          59.6309   96.8508    3.3739 C.3     1  UNL1        0.0897
@<TRIPOS>BOND
     1    13    14    1
     2    14     2    1
     3     2     3   ar
     4     3     4   ar
     5     4     5   ar
     6     5     6   ar
     7     6     7   ar
     8     7     8    1
     9     7     9   ar
    10     9    10   ar
    11    10    11   ar
    12    11    12   ar
    13     1    12    1
    14     1    15    1
    15    15    16   ar
    16    16    17   ar
    17    17    18   ar
    18    18    19   ar
    19    19    20   ar
    20     1    21    1
    21    21    22    1
    22    21    34    1
    23    34    35    1
    24    35    36    1
    25    36    37    1
    26    36    38    1
    27    21    24    1
    28    24    25   ar
    29    25    26   ar
    30    26    27   ar
    31    27    28   ar
    32    28    29   ar
    33    29    30   ar
    34    30    31   ar
    35    31    32   ar
    36    32    33   ar
    37    12     2   ar
    38    20    15   ar
    39    33    24   ar
    40    10     4   ar
    41    33    28   ar
    42    22    23    1
@<TRIPOS>MOLECULE
*****
 38 42 0 0 0
SMALL
GASTEIGER

@<TRIPOS>ATOM
      1 C          62.8589   89.6198   12.7833 C.3     1  UNL1        0.0776
      2 C          64.1335   91.5923   13.8945 C.ar    1  UNL1        0.2211
      3 N          65.0524   92.7725   13.7826 N.ar    1  UNL1       -0.2119
      4 C          65.6157   93.1607   12.4477 C.ar    1  UNL1        0.0844
      5 C          66.5346   94.3409   12.3358 C.ar    1  UNL1        0.0197
      6 C          67.0979   94.7290   11.0009 C.ar    1  UNL1        0.0082
      7 C          66.7422   93.9368    9.7778 C.ar    1  UNL1        0.0347
      8 BR         67.3055   94.3250    8.4428 Br      1  UNL1       -0.0490
      9 C          65.8233   92.7566    9.8896 C.ar    1  UNL1        0.0082
     10 C          65.2601   92.3685   11.2246 C.ar    1  UNL1        0.0181
     11 C          64.3411   91.1882   11.3364 C.ar    1  UNL1        0.0023
     12 C          63.7778   90.8001   12.6714 C.ar    1  UNL1        0.0373
     13 C          64.2130   91.7047   16.4889 C.3     1  UNL1        0.2542
     14 O          63.5702   91.2041   15.2295 O.3     1  UNL1       -0.4563
     15 C          61.4059   89.7654   12.4405 C.ar    1  UNL1       -0.0157
     16 C          60.3711   89.0162   13.2264 C.ar    1  UNL1       -0.0039
     17 C          58.9181   89.1618   12.8836 C.ar    1  UNL1       -0.0003
     18 C          58.4998   90.0567   11.7548 C.ar    1  UNL1       -0.0000
     19 C          59.5346   90.8061   10.9688 C.ar    1  UNL1       -0.0003
     20 C          60.9877   90.6604   11.3116 C.ar    1  UNL1       -0.0039
     21 C          63.3929   88.2939   13.2380 C.3     1  UNL1        0.1158
     22 O          63.7988   88.9059   14.5459 O.3     1  UNL1       -0.3820
     23 H          63.1074   88.7442   15.2068 H       1  UNL1        0.2107
     24 C          62.9871   87.6819   11.9300 C.ar    1  UNL1        0.0024
     25 C          62.7021   88.5598   10.7475 C.ar    1  UNL1       -0.0020
     26 C          62.2963   87.9478    9.4396 C.ar    1  UNL1       -0.0002
     27 C          62.1755   86.4580    9.3140 C.ar    1  UNL1       -0.0000
     28 C          62.4605   85.5801   10.4964 C.ar    1  UNL1       -0.0002
     29 C          62.3397   84.0902   10.3709 C.ar    1  UNL1       -0.0000
     30 C          62.6247   83.2124   11.5534 C.ar    1  UNL1       -0.0000
     31 C          63.0305   83.8244   12.8613 C.ar    1  UNL1       -0.0000
     32 C          63.1513   85.3142   12.9869 C.ar    1  UNL1       -0.0002
     33 C          62.8663   86.1921   11.8045 C.ar    1  UNL1       -0.0018
     34 C          63.9270   86.9680   13.6926 C.3     1  UNL1        0.0491
     35 C          64.4056   86.7962   15.1038 C.3     1  UNL1        0.0750
     36 N          63.4216   86.5140   16.2003 N.3     1  UNL1       -0.2702
     37 C          62.8311   85.1425   16.3434 C.3     1  UNL1        0.0897
     38 C          63.0282   87.6031   17.1537 C.3     1  UNL1        0.0897
@<TRIPOS>BOND
     1    13    14    1
     2    14     2    1
     3     2     3   ar
     4     3     4   ar
     5     4     5   ar
     6     5     6   ar
     7     6     7   ar
     8     7     8    1
     9     7     9   ar
    10     9    10   ar
    11    10    11   ar
    12    11    12   ar
    13     1    12    1
    14     1    15    1
    15    15    16   ar
    16    16    17   ar
    17    17    18   ar
    18    18    19   ar
    19    19    20   ar
    20     1    21    1
    21    21    22    1
    22    21    34    1
    23    34    35    1
    24    35    36    1
    25    36    37    1
    26    36    38    1
    27    21    24    1
    28    24    25   ar
    29    25    26   ar
    30    26    27   ar
    31    27    28   ar
    32    28    29   ar
    33    29    30   ar
    34    30    31   ar
    35    31    32   ar
    36    32    33   ar
    37    12     2   ar
    38    20    15   ar
    39    33    24   ar
    40    10     4   ar
    41    33    28   ar
    42    22    23    1
