@<TRIPOS>MOLECULE
*****
 37 41 0 0 0
SMALL
GASTEIGER

@<TRIPOS>ATOM
      1 C          63.3789   90.8609   11.6067 C.3     1  UNL1        0.1095
      2 C          63.6656   91.7561   10.4378 C.3     1  UNL1        0.1598
      3 O          64.8253   92.7061   10.4874 O.3     1  UNL1       -0.3508
      4 C          65.6982   92.7611   11.7061 C.3     1  UNL1        0.1598
      5 C          65.4115   91.8659   12.8750 C.3     1  UNL1        0.1091
      6 N          64.2518   90.9158   12.8254 N.3     1  UNL1       -0.1533
      7 C          62.2192   89.9108   11.5571 C.3     1  UNL1        0.0261
      8 C          61.0857   90.8883   11.4579 C.3     1  UNL1        0.0020
      9 C          60.8057   89.4147   11.4790 C.3     1  UNL1        0.0020
     10 C          62.9498   88.6034   11.6391 C.3     1  UNL1        0.0867
     11 N          62.6595   83.2353   12.2303 N.3     1  UNL1       -0.2699
     12 C          62.2546   83.5204   10.8145 C.3     1  UNL1        0.0939
     13 C          62.2259   84.9338   10.3127 C.3     1  UNL1        0.1107
     14 N          62.6022   86.0619   11.2269 N.am    1  UNL1       -0.2767
     15 C          62.5736   87.4752   10.7250 C.2     1  UNL1        0.2258
     16 O          62.1686   87.7604    9.3091 O.2     1  UNL1       -0.2749
     17 C          63.0072   85.7768   12.6427 C.3     1  UNL1        0.1107
     18 C          63.0358   84.3634   13.1445 C.3     1  UNL1        0.0939
     19 C          63.0086   81.3376   11.3491 C.3     1  UNL1        0.0186
     20 C          62.6882   81.8220   12.7321 C.3     1  UNL1        0.0726
     21 C          62.3679   82.3065   14.1151 C.3     1  UNL1        0.0186
     22 C          62.7169   80.4087   13.2339 C.3     1  UNL1        0.1516
     23 O          63.5467   80.0551   14.4324 O.3     1  UNL1       -0.3806
     24 H          64.4862   80.1713   14.2209 H       1  UNL1        0.2105
     25 C          66.2844   91.9208   14.0936 C.3     1  UNL1        0.0189
     26 C          67.5773   91.5958   14.7812 C.3     1  UNL1        0.0015
     27 C          66.5032   92.3409   15.5169 C.3     1  UNL1        0.0015
     28 S          63.9650   90.0207   13.9943 S.O2    1  UNL1        0.0634
     29 O          64.6331   88.8834   13.7066 O.2     1  UNL1       -0.1528
     30 O          63.1284   91.0998   14.6154 O.2     1  UNL1       -0.1528
     31 C          63.6781   89.1255   15.1633 C.ar    1  UNL1        0.1223
     32 C          63.9615   87.6556   15.0695 C.ar    1  UNL1        0.0208
     33 C          63.6746   86.7604   16.2385 C.ar    1  UNL1        0.0128
     34 C          63.1044   87.3352   17.5012 C.ar    1  UNL1        0.0578
     35 CL         62.8175   86.4401   18.6701 Cl      1  UNL1       -0.0822
     36 C          62.8210   88.8052   17.5949 C.ar    1  UNL1        0.0128
     37 C          63.1079   89.7004   16.4259 C.ar    1  UNL1        0.0208
@<TRIPOS>BOND
     1    19    20    1
     2    20    21    1
     3    20    22    1
     4    22    23    1
     5    20    11    1
     6    11    12    1
     7    12    13    1
     8    13    14    1
     9    14    15   am
    10    15    16    2
    11    15    10    1
    12    10     7    1
    13     1     7    1
    14     1     2    1
    15     2     3    1
    16     3     4    1
    17     4     5    1
    18     5    25    1
    19    25    26    1
    20    26    27    1
    21     5     6    1
    22     6    28    1
    23    28    29    2
    24    28    30    2
    25    28    31    1
    26    31    32   ar
    27    32    33   ar
    28    33    34   ar
    29    34    35    1
    30    34    36   ar
    31    36    37   ar
    32     7     8    1
    33     8     9    1
    34    14    17    1
    35    17    18    1
    36    18    11    1
    37     9     7    1
    38     6     1    1
    39    37    31   ar
    40    27    25    1
    41    23    24    1
@<TRIPOS>MOLECULE
*****
 37 41 0 0 0
SMALL
GASTEIGER

@<TRIPOS>ATOM
      1 C          60.5491   88.8012    9.7736 C.3     1  UNL1        0.1095
      2 C          59.7818   89.7971    8.9554 C.3     1  UNL1        0.1598
      3 O          59.3843   89.4640    7.5479 O.3     1  UNL1       -0.3508
      4 C          59.7540   88.1350    6.9587 C.3     1  UNL1        0.1598
      5 C          60.5212   87.1391    7.7770 C.3     1  UNL1        0.1091
      6 N          60.9188   87.4722    9.1844 N.3     1  UNL1       -0.1533
      7 C          60.9466   89.1343   11.1811 C.3     1  UNL1        0.0261
      8 C          59.5932   89.2068   11.8239 C.3     1  UNL1        0.0020
      9 C          60.8263   89.4524   12.6421 C.3     1  UNL1        0.0020
     10 C          62.4381   89.1775   11.0273 C.3     1  UNL1        0.0867
     11 N          65.9383   91.8987   14.1246 N.3     1  UNL1       -0.2699
     12 C          65.7078   92.7497   12.9111 C.3     1  UNL1        0.0939
     13 C          64.7751   92.2821   11.8333 C.3     1  UNL1        0.1107
     14 N          64.0730   90.9635   11.9692 N.am    1  UNL1       -0.2767
     15 C          63.1403   90.4960   10.8914 C.2     1  UNL1        0.2258
     16 O          62.9097   91.3470    9.6778 O.2     1  UNL1       -0.2749
     17 C          64.3034   90.1126   13.1827 C.3     1  UNL1        0.1107
     18 C          65.2362   90.5802   14.2605 C.3     1  UNL1        0.0939
     19 C          68.0321   92.2083   14.2659 C.3     1  UNL1        0.0186
     20 C          66.8710   92.3662   15.2024 C.3     1  UNL1        0.0726
     21 C          65.7099   92.5241   16.1387 C.3     1  UNL1        0.0186
     22 C          67.8037   92.8338   16.2801 C.3     1  UNL1        0.1516
     23 O          68.4563   94.1803   16.1750 O.3     1  UNL1       -0.3806
     24 H          69.0649   94.1865   15.4197 H       1  UNL1        0.2105
     25 C          60.8910   85.8101    7.1879 C.3     1  UNL1        0.0189
     26 C          60.4860   84.4706    6.6478 C.3     1  UNL1        0.0015
     27 C          61.9366   84.8478    6.7076 C.3     1  UNL1        0.0015
     28 S          61.6860   86.4764   10.0028 S.O2    1  UNL1        0.0634
     29 O          60.7941   86.0540   10.9239 O.2     1  UNL1       -0.1528
     30 O          62.8989   86.7117    9.1520 O.2     1  UNL1       -0.1528
     31 C          62.4534   85.4806   10.8211 C.ar    1  UNL1        0.1223
     32 C          62.4804   85.6003   12.3160 C.ar    1  UNL1        0.0208
     33 C          63.2478   84.6044   13.1343 C.ar    1  UNL1        0.0128
     34 C          63.9881   83.4890   12.4577 C.ar    1  UNL1        0.0578
     35 CL         64.7554   82.4933   13.2760 Cl      1  UNL1       -0.0822
     36 C          63.9610   83.3694   10.9628 C.ar    1  UNL1        0.0128
     37 C          63.1937   84.3652   10.1444 C.ar    1  UNL1        0.0208
@<TRIPOS>BOND
     1    19    20    1
     2    20    21    1
     3    20    22    1
     4    22    23    1
     5    20    11    1
     6    11    12    1
     7    12    13    1
     8    13    14    1
     9    14    15   am
    10    15    16    2
    11    15    10    1
    12    10     7    1
    13     1     7    1
    14     1     2    1
    15     2     3    1
    16     3     4    1
    17     4     5    1
    18     5    25    1
    19    25    26    1
    20    26    27    1
    21     5     6    1
    22     6    28    1
    23    28    29    2
    24    28    30    2
    25    28    31    1
    26    31    32   ar
    27    32    33   ar
    28    33    34   ar
    29    34    35    1
    30    34    36   ar
    31    36    37   ar
    32     7     8    1
    33     8     9    1
    34    14    17    1
    35    17    18    1
    36    18    11    1
    37     9     7    1
    38     6     1    1
    39    37    31   ar
    40    27    25    1
    41    23    24    1
@<TRIPOS>MOLECULE
*****
 37 41 0 0 0
SMALL
GASTEIGER

@<TRIPOS>ATOM
      1 C          63.6612   87.9231   13.6944 C.3     1  UNL1        0.1095
      2 C          64.5220   87.5959   14.8783 C.3     1  UNL1        0.1598
      3 O          64.9276   86.1759   15.1413 O.3     1  UNL1       -0.3508
      4 C          64.4722   85.0831   14.2202 C.3     1  UNL1        0.1598
      5 C          63.6113   85.4102   13.0362 C.3     1  UNL1        0.1091
      6 N          63.2058   86.8302   12.7733 N.3     1  UNL1       -0.1533
      7 C          63.2556   89.3430   13.4314 C.3     1  UNL1        0.0261
      8 C          61.7963   89.2640   13.7693 C.3     1  UNL1        0.0020
      9 C          62.3922   90.5644   13.3175 C.3     1  UNL1        0.0020
     10 C          64.5741   89.9153   13.0023 C.3     1  UNL1        0.0867
     11 N          66.4215   94.5876   11.0006 N.3     1  UNL1       -0.2699
     12 C          66.4772   94.7236   12.4933 C.3     1  UNL1        0.0939
     13 C          66.0293   93.5894   13.3670 C.3     1  UNL1        0.1107
     14 N          65.5256   92.3194   12.7477 N.am    1  UNL1       -0.2767
     15 C          65.0777   91.1853   13.6214 C.2     1  UNL1        0.2258
     16 O          65.1335   91.3213   15.1142 O.2     1  UNL1       -0.2749
     17 C          65.4699   92.1835   11.2550 C.3     1  UNL1        0.1107
     18 C          65.9178   93.3176   10.3814 C.3     1  UNL1        0.0939
     19 C          67.6287   94.7574    9.2647 C.3     1  UNL1        0.0186
     20 C          66.8694   95.7217   10.1269 C.3     1  UNL1        0.0726
     21 C          66.1100   96.6859   10.9892 C.3     1  UNL1        0.0186
     22 C          67.3173   96.8557    9.2532 C.3     1  UNL1        0.1516
     23 O          67.9876   96.5725    7.9415 O.3     1  UNL1       -0.3806
     24 H          68.8427   96.1433    8.1014 H       1  UNL1        0.2105
     25 C          63.1559   84.3174   12.1151 C.3     1  UNL1        0.0189
     26 C          63.2222   83.6283   10.7845 C.3     1  UNL1        0.0015
     27 C          62.3008   83.1138   11.8505 C.3     1  UNL1        0.0015
     28 S          62.3449   87.1574   11.5893 S.O2    1  UNL1        0.0634
     29 O          63.1217   87.9617   10.8329 O.2     1  UNL1       -0.1528
     30 O          61.2406   86.3180   12.1603 O.2     1  UNL1       -0.1528
     31 C          61.4839   87.4846   10.4054 C.ar    1  UNL1        0.1223
     32 C          60.9472   86.3825    9.5410 C.ar    1  UNL1        0.0208
     33 C          60.0862   86.7096    8.3570 C.ar    1  UNL1        0.0128
     34 C          59.7619   88.1389    8.0375 C.ar    1  UNL1        0.0578
     35 CL         58.9010   88.4660    6.8536 Cl      1  UNL1       -0.0822
     36 C          60.2987   89.2410    8.9019 C.ar    1  UNL1        0.0128
     37 C          61.1597   88.9139   10.0859 C.ar    1  UNL1        0.0208
@<TRIPOS>BOND
     1    19    20    1
     2    20    21    1
     3    20    22    1
     4    22    23    1
     5    20    11    1
     6    11    12    1
     7    12    13    1
     8    13    14    1
     9    14    15   am
    10    15    16    2
    11    15    10    1
    12    10     7    1
    13     1     7    1
    14     1     2    1
    15     2     3    1
    16     3     4    1
    17     4     5    1
    18     5    25    1
    19    25    26    1
    20    26    27    1
    21     5     6    1
    22     6    28    1
    23    28    29    2
    24    28    30    2
    25    28    31    1
    26    31    32   ar
    27    32    33   ar
    28    33    34   ar
    29    34    35    1
    30    34    36   ar
    31    36    37   ar
    32     7     8    1
    33     8     9    1
    34    14    17    1
    35    17    18    1
    36    18    11    1
    37     9     7    1
    38     6     1    1
    39    37    31   ar
    40    27    25    1
    41    23    24    1
@<TRIPOS>MOLECULE
*****
 37 41 0 0 0
SMALL
GASTEIGER

@<TRIPOS>ATOM
      1 C          60.8556   89.2822   10.5342 C.3     1  UNL1        0.1095
      2 C          60.1375   90.3978    9.8345 C.3     1  UNL1        0.1598
      3 O          59.5942   90.1893    8.4519 O.3     1  UNL1       -0.3508
      4 C          59.7692   88.8652    7.7691 C.3     1  UNL1        0.1598
      5 C          60.4873   87.7496    8.4689 C.3     1  UNL1        0.1091
      6 N          61.0305   87.9581    9.8514 N.3     1  UNL1       -0.1533
      7 C          61.3988   89.4907   11.9167 C.3     1  UNL1        0.0261
      8 C          60.1183   89.5270   12.6971 C.3     1  UNL1        0.0020
      9 C          61.4319   89.6866   13.4036 C.3     1  UNL1        0.0020
     10 C          62.8681   89.5267   11.6167 C.3     1  UNL1        0.0867
     11 N          65.9033   93.9627   11.0172 N.3     1  UNL1       -0.2699
     12 C          66.1340   93.4875   12.4210 C.3     1  UNL1        0.0939
     13 C          65.4327   92.2596   12.9219 C.3     1  UNL1        0.1107
     14 N          64.5010   91.5071   12.0188 N.am    1  UNL1       -0.2767
     15 C          63.7998   90.2793   12.5197 C.2     1  UNL1        0.2258
     16 O          64.0304   89.8040   13.9236 O.2     1  UNL1       -0.2749
     17 C          64.2704   91.9823   10.6149 C.3     1  UNL1        0.1107
     18 C          64.9716   93.2102   10.1141 C.3     1  UNL1        0.0939
     19 C          66.0630   95.9727   11.6760 C.3     1  UNL1        0.0186
     20 C          66.6045   95.1905   10.5163 C.3     1  UNL1        0.0726
     21 C          67.1460   94.4083    9.3566 C.3     1  UNL1        0.0186
     22 C          67.3056   96.4183   10.0154 C.3     1  UNL1        0.1516
     23 O          67.9338   96.4202    8.6533 O.3     1  UNL1       -0.3806
     24 H          68.6736   95.7931    8.6375 H       1  UNL1        0.2105
     25 C          60.6623   86.4255    7.7862 C.3     1  UNL1        0.0189
     26 C          60.0815   85.2650    7.0339 C.3     1  UNL1        0.0015
     27 C          61.5463   85.2926    7.3560 C.3     1  UNL1        0.0015
     28 S          61.7487   86.8425   10.5513 S.O2    1  UNL1        0.0634
     29 O          60.8824   86.4452   11.5073 O.2     1  UNL1       -0.1528
     30 O          62.9200   87.0192    9.6309 O.2     1  UNL1       -0.1528
     31 C          62.4670   85.7270   11.2510 C.ar    1  UNL1        0.1223
     32 C          62.9394   85.9085   12.6631 C.ar    1  UNL1        0.0208
     33 C          63.6576   84.7929   13.3628 C.ar    1  UNL1        0.0128
     34 C          63.9036   83.4959   12.6507 C.ar    1  UNL1        0.0578
     35 CL         64.6218   82.3804   13.3504 Cl      1  UNL1       -0.0822
     36 C          63.4312   83.3145   11.2386 C.ar    1  UNL1        0.0128
     37 C          62.7129   84.4300   10.5387 C.ar    1  UNL1        0.0208
@<TRIPOS>BOND
     1    19    20    1
     2    20    21    1
     3    20    22    1
     4    22    23    1
     5    20    11    1
     6    11    12    1
     7    12    13    1
     8    13    14    1
     9    14    15   am
    10    15    16    2
    11    15    10    1
    12    10     7    1
    13     1     7    1
    14     1     2    1
    15     2     3    1
    16     3     4    1
    17     4     5    1
    18     5    25    1
    19    25    26    1
    20    26    27    1
    21     5     6    1
    22     6    28    1
    23    28    29    2
    24    28    30    2
    25    28    31    1
    26    31    32   ar
    27    32    33   ar
    28    33    34   ar
    29    34    35    1
    30    34    36   ar
    31    36    37   ar
    32     7     8    1
    33     8     9    1
    34    14    17    1
    35    17    18    1
    36    18    11    1
    37     9     7    1
    38     6     1    1
    39    37    31   ar
    40    27    25    1
    41    23    24    1
@<TRIPOS>MOLECULE
*****
 37 41 0 0 0
SMALL
GASTEIGER

@<TRIPOS>ATOM
      1 C          63.5202   90.1840   13.4823 C.3     1  UNL1        0.1095
      2 C          62.3437   89.6563   12.7160 C.3     1  UNL1        0.1598
      3 O          62.1425   90.0532   11.2835 O.3     1  UNL1       -0.3508
      4 C          63.1179   90.9778   10.6173 C.3     1  UNL1        0.1598
      5 C          64.2944   91.5055   11.3836 C.3     1  UNL1        0.1091
      6 N          64.4956   91.1087   12.8161 N.3     1  UNL1       -0.1533
      7 C          63.7214   89.7872   14.9148 C.3     1  UNL1        0.0261
      8 C          63.3343   91.0661   15.5963 C.3     1  UNL1        0.0020
      9 C          63.7639   89.8823   16.4112 C.3     1  UNL1        0.0020
     10 C          64.1784   88.3704   14.7308 C.3     1  UNL1        0.0867
     11 N          63.1087   83.1398   13.8666 N.3     1  UNL1       -0.2699
     12 C          62.6784   83.4252   15.2749 C.3     1  UNL1        0.0939
     13 C          62.8383   84.8043   15.8430 C.3     1  UNL1        0.1107
     14 N          63.4284   85.8978   15.0028 N.am    1  UNL1       -0.2767
     15 C          63.5882   87.2768   15.5710 C.2     1  UNL1        0.2258
     16 O          63.1579   87.5623   16.9793 O.2     1  UNL1       -0.2749
     17 C          63.8587   85.6124   13.5945 C.3     1  UNL1        0.1107
     18 C          63.6989   84.2333   13.0264 C.3     1  UNL1        0.0939
     19 C          61.7254   81.5553   14.1415 C.3     1  UNL1        0.0186
     20 C          62.9489   81.7607   13.2984 C.3     1  UNL1        0.0726
     21 C          64.1724   81.9663   12.4553 C.3     1  UNL1        0.0186
     22 C          62.7891   80.3818   12.7303 C.3     1  UNL1        0.1516
     23 O          62.7930   80.1778   11.2442 O.3     1  UNL1       -0.3806
     24 H          62.0125   80.6042   10.8572 H       1  UNL1        0.2105
     25 C          65.2698   92.4301   10.7176 C.3     1  UNL1        0.0189
     26 C          65.6136   93.7875   10.1797 C.3     1  UNL1        0.0015
     27 C          66.6157   92.6740   10.1017 C.3     1  UNL1        0.0015
     28 S          65.6721   91.6363   13.5825 S.O2    1  UNL1        0.0634
     29 O          66.3857   90.5316   13.8872 O.2     1  UNL1       -0.1528
     30 O          65.1484   93.0331   13.4248 O.2     1  UNL1       -0.1528
     31 C          66.8486   92.1641   14.3489 C.ar    1  UNL1        0.1223
     32 C          68.2357   91.9961   13.8031 C.ar    1  UNL1        0.0208
     33 C          69.4122   92.5239   14.5696 C.ar    1  UNL1        0.0128
     34 C          69.2017   93.2196   15.8816 C.ar    1  UNL1        0.0578
     35 CL         70.3782   93.7474   16.6480 Cl      1  UNL1       -0.0822
     36 C          67.8146   93.3876   16.4273 C.ar    1  UNL1        0.0128
     37 C          66.6380   92.8598   15.6610 C.ar    1  UNL1        0.0208
@<TRIPOS>BOND
     1    19    20    1
     2    20    21    1
     3    20    22    1
     4    22    23    1
     5    20    11    1
     6    11    12    1
     7    12    13    1
     8    13    14    1
     9    14    15   am
    10    15    16    2
    11    15    10    1
    12    10     7    1
    13     1     7    1
    14     1     2    1
    15     2     3    1
    16     3     4    1
    17     4     5    1
    18     5    25    1
    19    25    26    1
    20    26    27    1
    21     5     6    1
    22     6    28    1
    23    28    29    2
    24    28    30    2
    25    28    31    1
    26    31    32   ar
    27    32    33   ar
    28    33    34   ar
    29    34    35    1
    30    34    36   ar
    31    36    37   ar
    32     7     8    1
    33     8     9    1
    34    14    17    1
    35    17    18    1
    36    18    11    1
    37     9     7    1
    38     6     1    1
    39    37    31   ar
    40    27    25    1
    41    23    24    1
@<TRIPOS>MOLECULE
*****
 37 41 0 0 0
SMALL
GASTEIGER

@<TRIPOS>ATOM
      1 C          64.3114   90.2849   14.9781 C.3     1  UNL1        0.1095
      2 C          65.2983   90.9634   15.8812 C.3     1  UNL1        0.1598
      3 O          66.2053   92.0269   15.3367 O.3     1  UNL1       -0.3508
      4 C          66.1253   92.4118   13.8891 C.3     1  UNL1        0.1598
      5 C          65.1384   91.7333   12.9861 C.3     1  UNL1        0.1091
      6 N          64.2314   90.6698   13.5306 N.3     1  UNL1       -0.1533
      7 C          63.4045   89.2214   15.5226 C.3     1  UNL1        0.0261
      8 C          62.3293   90.0781   16.1226 C.3     1  UNL1        0.0020
      9 C          62.2335   88.5837   16.2098 C.3     1  UNL1        0.0020
     10 C          64.1646   87.9953   15.1117 C.3     1  UNL1        0.0867
     11 N          63.2253   83.0206   13.2093 N.3     1  UNL1       -0.2699
     12 C          63.1368   82.9182   14.7031 C.3     1  UNL1        0.0939
     13 C          63.3496   84.1364   15.5522 C.3     1  UNL1        0.1107
     14 N          63.6507   85.4568   14.9074 N.am    1  UNL1       -0.2767
     15 C          63.8635   86.6749   15.7565 C.2     1  UNL1        0.2258
     16 O          63.7750   86.5726   17.2504 O.2     1  UNL1       -0.2749
     17 C          63.7392   85.5591   13.4135 C.3     1  UNL1        0.1107
     18 C          63.5264   84.3409   12.5644 C.3     1  UNL1        0.0939
     19 C          63.7023   82.4811   11.2140 C.3     1  UNL1        0.0186
     20 C          63.0126   81.8024   12.3601 C.3     1  UNL1        0.0726
     21 C          62.3228   81.1239   13.5063 C.3     1  UNL1        0.0186
     22 C          62.7999   80.5844   11.5110 C.3     1  UNL1        0.1516
     23 O          63.1071   80.6301   10.0435 O.3     1  UNL1       -0.3806
     24 H          62.4967   81.2428    9.6043 H       1  UNL1        0.2105
     25 C          65.0583   92.1182   11.5386 C.3     1  UNL1        0.0189
     26 C          65.5508   92.9384   10.3833 C.3     1  UNL1        0.0015
     27 C          64.4270   91.9645   10.1865 C.3     1  UNL1        0.0015
     28 S          63.2445   89.9913   12.6276 S.O2    1  UNL1        0.0634
     29 O          63.8347   88.8161   12.3227 O.2     1  UNL1       -0.1528
     30 O          62.3222   91.1679   12.7515 O.2     1  UNL1       -0.1528
     31 C          62.2574   89.3128   11.7245 C.ar    1  UNL1        0.1223
     32 C          61.1185   90.0928   11.1377 C.ar    1  UNL1        0.0208
     33 C          60.1314   89.4143   10.2347 C.ar    1  UNL1        0.0128
     34 C          60.2832   87.9560    9.9185 C.ar    1  UNL1        0.0578
     35 CL         59.2961   87.2775    9.0155 Cl      1  UNL1       -0.0822
     36 C          61.4221   87.1760   10.5054 C.ar    1  UNL1        0.0128
     37 C          62.4093   87.8544   11.4084 C.ar    1  UNL1        0.0208
@<TRIPOS>BOND
     1    19    20    1
     2    20    21    1
     3    20    22    1
     4    22    23    1
     5    20    11    1
     6    11    12    1
     7    12    13    1
     8    13    14    1
     9    14    15   am
    10    15    16    2
    11    15    10    1
    12    10     7    1
    13     1     7    1
    14     1     2    1
    15     2     3    1
    16     3     4    1
    17     4     5    1
    18     5    25    1
    19    25    26    1
    20    26    27    1
    21     5     6    1
    22     6    28    1
    23    28    29    2
    24    28    30    2
    25    28    31    1
    26    31    32   ar
    27    32    33   ar
    28    33    34   ar
    29    34    35    1
    30    34    36   ar
    31    36    37   ar
    32     7     8    1
    33     8     9    1
    34    14    17    1
    35    17    18    1
    36    18    11    1
    37     9     7    1
    38     6     1    1
    39    37    31   ar
    40    27    25    1
    41    23    24    1
@<TRIPOS>MOLECULE
*****
 37 41 0 0 0
SMALL
GASTEIGER

@<TRIPOS>ATOM
      1 C          63.8365   90.8239   14.0046 C.3     1  UNL1        0.1095
      2 C          63.1262   90.3996   15.2557 C.3     1  UNL1        0.1598
      3 O          63.6280   90.8546   16.5940 O.3     1  UNL1       -0.3508
      4 C          64.8401   91.7340   16.6811 C.3     1  UNL1        0.1598
      5 C          65.5504   92.1583   15.4300 C.3     1  UNL1        0.1091
      6 N          65.0486   91.7033   14.0917 N.3     1  UNL1       -0.1533
      7 C          63.3347   90.3688   12.6662 C.3     1  UNL1        0.0261
      8 C          62.9182   91.6863   12.0825 C.3     1  UNL1        0.0020
      9 C          62.7487   90.4262   11.2865 C.3     1  UNL1        0.0020
     10 C          63.5769   88.8933   12.7851 C.3     1  UNL1        0.0867
     11 N          62.8186   83.5394   12.6828 N.3     1  UNL1       -0.2699
     12 C          62.2441   84.0654   11.4010 C.3     1  UNL1        0.0939
     13 C          62.2901   85.5355   11.1061 C.3     1  UNL1        0.1107
     14 N          62.9105   86.4794   12.0931 N.am    1  UNL1       -0.2767
     15 C          62.9564   87.9494   11.7982 C.2     1  UNL1        0.2258
     16 O          62.3819   88.4756   10.5163 O.2     1  UNL1       -0.2749
     17 C          63.4851   85.9533   13.3749 C.3     1  UNL1        0.1107
     18 C          63.4391   84.4832   13.6698 C.3     1  UNL1        0.0939
     19 C          63.1667   81.7730   11.5610 C.3     1  UNL1        0.0186
     20 C          62.7727   82.0693   12.9777 C.3     1  UNL1        0.0726
     21 C          62.3788   82.3658   14.3943 C.3     1  UNL1        0.0186
     22 C          62.7268   80.5994   13.2726 C.3     1  UNL1        0.1516
     23 O          63.4918   80.0438   14.4372 O.3     1  UNL1       -0.3806
     24 H          64.4430   80.1478   14.2784 H       1  UNL1        0.2105
     25 C          66.7624   93.0377   15.5170 C.3     1  UNL1        0.0189
     26 C          67.5758   94.1843   14.9939 C.3     1  UNL1        0.0015
     27 C          68.0485   93.4141   16.1912 C.3     1  UNL1        0.0015
     28 S          65.7588   92.1275   12.8404 S.O2    1  UNL1        0.0634
     29 O          65.0112   93.1488   12.3707 O.2     1  UNL1       -0.1528
     30 O          66.7921   91.0638   13.0663 O.2     1  UNL1       -0.1528
     31 C          66.4691   92.5517   11.5892 C.ar    1  UNL1        0.1223
     32 C          65.9735   93.7334   10.8095 C.ar    1  UNL1        0.0208
     33 C          66.6838   94.1576    9.5582 C.ar    1  UNL1        0.0128
     34 C          67.8896   93.4002    9.0867 C.ar    1  UNL1        0.0578
     35 CL         68.5999   93.8244    7.8355 Cl      1  UNL1       -0.0822
     36 C          68.3851   92.2185    9.8665 C.ar    1  UNL1        0.0128
     37 C          67.6748   91.7942   11.1178 C.ar    1  UNL1        0.0208
@<TRIPOS>BOND
     1    19    20    1
     2    20    21    1
     3    20    22    1
     4    22    23    1
     5    20    11    1
     6    11    12    1
     7    12    13    1
     8    13    14    1
     9    14    15   am
    10    15    16    2
    11    15    10    1
    12    10     7    1
    13     1     7    1
    14     1     2    1
    15     2     3    1
    16     3     4    1
    17     4     5    1
    18     5    25    1
    19    25    26    1
    20    26    27    1
    21     5     6    1
    22     6    28    1
    23    28    29    2
    24    28    30    2
    25    28    31    1
    26    31    32   ar
    27    32    33   ar
    28    33    34   ar
    29    34    35    1
    30    34    36   ar
    31    36    37   ar
    32     7     8    1
    33     8     9    1
    34    14    17    1
    35    17    18    1
    36    18    11    1
    37     9     7    1
    38     6     1    1
    39    37    31   ar
    40    27    25    1
    41    23    24    1
@<TRIPOS>MOLECULE
*****
 37 41 0 0 0
SMALL
GASTEIGER

@<TRIPOS>ATOM
      1 C          62.5006   88.8644   12.5907 C.3     1  UNL1        0.1095
      2 C          62.8639   89.4583   13.9193 C.3     1  UNL1        0.1598
      3 O          63.4617   88.5935   14.9892 O.3     1  UNL1       -0.3508
      4 C          63.6960   87.1346   14.7304 C.3     1  UNL1        0.1598
      5 C          63.3327   86.5407   13.4019 C.3     1  UNL1        0.1091
      6 N          62.7350   87.4056   12.3319 N.3     1  UNL1       -0.1533
      7 C          61.9029   89.7293   11.5208 C.3     1  UNL1        0.0261
      8 C          60.4694   89.7368   11.9625 C.3     1  UNL1        0.0020
      9 C          60.8794   90.4925   10.7332 C.3     1  UNL1        0.0020
     10 C          63.1287   90.0222   10.7074 C.3     1  UNL1        0.0867
     11 N          66.6904   92.3705   14.0315 N.3     1  UNL1       -0.2699
     12 C          66.3435   93.4011   12.9984 C.3     1  UNL1        0.0939
     13 C          65.3662   93.0716   11.9091 C.3     1  UNL1        0.1107
     14 N          64.7361   91.7116   11.8530 N.am    1  UNL1       -0.2767
     15 C          63.7589   91.3822   10.7636 C.2     1  UNL1        0.2258
     16 O          63.4118   92.4128    9.7304 O.2     1  UNL1       -0.2749
     17 C          65.0831   90.6810   12.8861 C.3     1  UNL1        0.1107
     18 C          66.0603   91.0105   13.9754 C.3     1  UNL1        0.0939
     19 C          66.5303   92.9290   16.0717 C.3     1  UNL1        0.0186
     20 C          67.6676   92.6999   15.1209 C.3     1  UNL1        0.0726
     21 C          68.8049   92.4708   14.1700 C.3     1  UNL1        0.0186
     22 C          68.6448   93.0293   16.2102 C.3     1  UNL1        0.1516
     23 O          69.3708   94.3418   16.1948 O.3     1  UNL1       -0.3806
     24 H          69.9650   94.3737   15.4287 H       1  UNL1        0.2105
     25 C          63.5671   85.0819   13.1431 C.3     1  UNL1        0.0189
     26 C          64.4538   83.8747   13.2216 C.3     1  UNL1        0.0015
     27 C          63.0860   83.7624   12.6162 C.3     1  UNL1        0.0015
     28 S          62.3716   86.8117   11.0033 S.O2    1  UNL1        0.0634
     29 O          63.4636   87.0273   10.2394 O.2     1  UNL1       -0.1528
     30 O          61.0304   86.4167   11.5467 O.2     1  UNL1       -0.1528
     31 C          62.0081   86.2178    9.6747 C.ar    1  UNL1        0.1223
     32 C          63.0088   85.3898    8.9244 C.ar    1  UNL1        0.0208
     33 C          62.6453   84.7959    7.5957 C.ar    1  UNL1        0.0128
     34 C          61.2812   85.0300    7.0174 C.ar    1  UNL1        0.0578
     35 CL         60.9178   84.4361    5.6889 Cl      1  UNL1       -0.0822
     36 C          60.2806   85.8580    7.7678 C.ar    1  UNL1        0.0128
     37 C          60.6440   86.4520    9.0965 C.ar    1  UNL1        0.0208
@<TRIPOS>BOND
     1    19    20    1
     2    20    21    1
     3    20    22    1
     4    22    23    1
     5    20    11    1
     6    11    12    1
     7    12    13    1
     8    13    14    1
     9    14    15   am
    10    15    16    2
    11    15    10    1
    12    10     7    1
    13     1     7    1
    14     1     2    1
    15     2     3    1
    16     3     4    1
    17     4     5    1
    18     5    25    1
    19    25    26    1
    20    26    27    1
    21     5     6    1
    22     6    28    1
    23    28    29    2
    24    28    30    2
    25    28    31    1
    26    31    32   ar
    27    32    33   ar
    28    33    34   ar
    29    34    35    1
    30    34    36   ar
    31    36    37   ar
    32     7     8    1
    33     8     9    1
    34    14    17    1
    35    17    18    1
    36    18    11    1
    37     9     7    1
    38     6     1    1
    39    37    31   ar
    40    27    25    1
    41    23    24    1
@<TRIPOS>MOLECULE
*****
 37 41 0 0 0
SMALL
GASTEIGER

@<TRIPOS>ATOM
      1 C          64.0666   91.0970   12.8180 C.3     1  UNL1        0.1095
      2 C          63.5244   90.1291   13.8276 C.3     1  UNL1        0.1598
      3 O          64.1859   89.9934   15.1670 O.3     1  UNL1       -0.3508
      4 C          65.3897   90.8255   15.4968 C.3     1  UNL1        0.1598
      5 C          65.9318   91.7933   14.4872 C.3     1  UNL1        0.1091
      6 N          65.2703   91.9291   13.1478 N.3     1  UNL1       -0.1533
      7 C          63.4051   91.2328   11.4787 C.3     1  UNL1        0.0261
      8 C          64.5802   91.6595   10.6498 C.3     1  UNL1        0.0020
      9 C          63.2314   91.5004   10.0129 C.3     1  UNL1        0.0020
     10 C          62.0002   90.8532   11.8423 C.3     1  UNL1        0.0867
     11 N          62.5410   85.5003   11.2911 N.3     1  UNL1       -0.2699
     12 C          61.3928   85.8952   10.4104 C.3     1  UNL1        0.0939
     13 C          60.9705   87.3323   10.3281 C.3     1  UNL1        0.1107
     14 N          61.6965   88.3742   11.1264 N.am    1  UNL1       -0.2767
     15 C          61.2742   89.8112   11.0440 C.2     1  UNL1        0.2258
     16 O          60.1260   90.2062   10.1634 O.2     1  UNL1       -0.2749
     17 C          62.8448   87.9792   12.0070 C.3     1  UNL1        0.1107
     18 C          63.2670   86.5422   12.0893 C.3     1  UNL1        0.0939
     19 C          62.5997   84.0399   12.8285 C.3     1  UNL1        0.0186
     20 C          62.9633   84.0633   11.3734 C.3     1  UNL1        0.0726
     21 C          63.3269   84.0866    9.9184 C.3     1  UNL1        0.0186
     22 C          63.3855   82.6263   11.4559 C.3     1  UNL1        0.1516
     23 O          64.8431   82.2721   11.4626 O.3     1  UNL1       -0.3806
     24 H          65.2373   82.5084   10.6084 H       1  UNL1        0.2105
     25 C          67.1355   92.6254   14.8169 C.3     1  UNL1        0.0189
     26 C          67.7307   93.8962   15.3469 C.3     1  UNL1        0.0015
     27 C          68.6253   92.7958   14.8578 C.3     1  UNL1        0.0015
     28 S          65.8124   92.8969   12.1382 S.O2    1  UNL1        0.0634
     29 O          65.0848   94.0168   12.3355 O.2     1  UNL1       -0.1528
     30 O          66.7809   91.8558   11.6602 O.2     1  UNL1       -0.1528
     31 C          66.3546   93.8647   11.1284 C.ar    1  UNL1        0.1223
     32 C          67.2344   93.3744   10.0169 C.ar    1  UNL1        0.0208
     33 C          67.7766   94.3422    9.0072 C.ar    1  UNL1        0.0128
     34 C          67.4390   95.8001    9.1089 C.ar    1  UNL1        0.0578
     35 CL         67.9812   96.7678    8.0992 Cl      1  UNL1       -0.0822
     36 C          66.5592   96.2903   10.2205 C.ar    1  UNL1        0.0128
     37 C          66.0169   95.3226   11.2303 C.ar    1  UNL1        0.0208
@<TRIPOS>BOND
     1    19    20    1
     2    20    21    1
     3    20    22    1
     4    22    23    1
     5    20    11    1
     6    11    12    1
     7    12    13    1
     8    13    14    1
     9    14    15   am
    10    15    16    2
    11    15    10    1
    12    10     7    1
    13     1     7    1
    14     1     2    1
    15     2     3    1
    16     3     4    1
    17     4     5    1
    18     5    25    1
    19    25    26    1
    20    26    27    1
    21     5     6    1
    22     6    28    1
    23    28    29    2
    24    28    30    2
    25    28    31    1
    26    31    32   ar
    27    32    33   ar
    28    33    34   ar
    29    34    35    1
    30    34    36   ar
    31    36    37   ar
    32     7     8    1
    33     8     9    1
    34    14    17    1
    35    17    18    1
    36    18    11    1
    37     9     7    1
    38     6     1    1
    39    37    31   ar
    40    27    25    1
    41    23    24    1
