@<TRIPOS>MOLECULE
*****
 41 44 0 0 0
SMALL
GASTEIGER

@<TRIPOS>ATOM
      1 C          61.6378   90.5732   10.9204 C.3     1  UNL1        0.1001
      2 C          60.6487   89.4455   10.9290 C.3     1  UNL1        0.1443
      3 O          59.9870   89.0381   12.2121 O.3     1  UNL1       -0.3813
      4 H          60.3077   89.6007   12.9342 H       1  UNL1        0.2105
      5 C          60.3214   88.7252    9.6547 C.3     1  UNL1        0.1041
      6 N          60.2583   89.4813    8.3607 N.am    1  UNL1       -0.3012
      7 C          59.3669   89.0010    7.2541 C.2     1  UNL1        0.2527
      8 O          58.5385   87.7646    7.4414 O.2     1  UNL1       -0.2724
      9 H          60.8020   90.2928    8.2378 H       1  UNL1        0.1495
     10 C          59.3038   89.7572    5.9602 C.3     1  UNL1        0.2269
     11 O          58.1238   90.6334    5.6604 O.3     1  UNL1       -0.3418
     12 C          58.2861   91.8326    4.7739 C.3     1  UNL1        0.1748
     13 C          60.0572   87.2488    9.6743 C.3     1  UNL1        0.0484
     14 C          62.8066   84.6937   10.9637 C.ar    1  UNL1        0.0423
     15 C          63.4969   84.3474    9.6778 C.ar    1  UNL1        0.0082
     16 C          63.0407   84.9682    8.3908 C.ar    1  UNL1        0.0003
     17 C          61.8942   85.9353    8.3896 C.ar    1  UNL1       -0.0042
     18 C          61.2038   86.2816    9.6755 C.ar    1  UNL1       -0.0198
     19 C          61.6600   85.6609   10.9625 C.ar    1  UNL1        0.0041
     20 C          63.7190   83.4522   13.5378 C.1     1  UNL1       -0.0092
     21 C          63.2628   84.0729   12.2508 C.1     1  UNL1       -0.0512
     22 N          63.1037   90.2861   11.0562 N.3     1  UNL1       -0.2928
     23 H          63.4636   90.1393   10.1132 H       1  UNL1        0.1236
     24 C          64.0065   91.2879   11.7131 C.3     1  UNL1        0.0849
     25 C          64.6968   92.3314   10.8857 C.3     1  UNL1        0.0604
     26 C          65.5995   93.3332   11.5425 C.3     1  UNL1        0.1363
     27 C          65.6322   93.6792   10.0832 C.3     1  UNL1        0.0402
     28 C          66.5757   94.8090   10.3723 C.3     1  UNL1        0.0072
     29 C          66.5429   94.4631   11.8315 C.3     1  UNL1        0.0402
     30 O          65.8120   93.2915   13.0268 O.3     1  UNL1       -0.4676
     31 C          65.1218   92.2480   13.8542 C.ar    1  UNL1        0.2216
     32 N          65.3343   92.2063   15.3385 N.ar    1  UNL1       -0.2107
     33 C          64.6441   91.1628   16.1660 C.ar    1  UNL1        0.0977
     34 C          63.7413   90.1610   15.5091 C.ar    1  UNL1       -0.0031
     35 C          63.5288   90.2027   14.0248 C.ar    1  UNL1       -0.0011
     36 C          64.2190   91.2462   13.1974 C.ar    1  UNL1        0.0449
     37 C          63.0511   89.1175   16.3365 C.3     1  UNL1        0.0279
     38 C          63.4718   87.6811   16.2357 C.3     1  UNL1        0.0041
     39 C          62.7049   87.3688   17.4864 C.3     1  UNL1        0.0003
     40 C          64.2388   87.9936   14.9850 C.3     1  UNL1        0.0003
     41 C          63.8925   86.2449   16.1350 C.3     1  UNL1        0.0003
@<TRIPOS>BOND
     1    20    21    3
     2    21    14    1
     3    14    15   ar
     4    15    16   ar
     5    16    17   ar
     6    17    18   ar
     7    18    13    1
     8     5    13    1
     9     5     6    1
    10     6     7   am
    11     7     8    2
    12     7    10    1
    13    10    11    1
    14    11    12    1
    15     5     2    1
    16     2     3    1
    17     2     1    1
    18     1    22    1
    19    24    22    1
    20    24    25    1
    21    25    26    1
    22    26    27    1
    23    27    28    1
    24    28    29    1
    25    26    30    1
    26    30    31    1
    27    31    32   ar
    28    32    33   ar
    29    33    34   ar
    30    34    37    1
    31    37    38    1
    32    38    39    1
    33    38    40    1
    34    38    41    1
    35    34    35   ar
    36    35    36   ar
    37    18    19   ar
    38    19    14   ar
    39    36    24    1
    40    29    26    1
    41    36    31   ar
    42     6     9    1
    43     3     4    1
    44    22    23    1
@<TRIPOS>MOLECULE
*****
 41 44 0 0 0
SMALL
GASTEIGER

@<TRIPOS>ATOM
      1 C          61.7387   90.5285   10.8663 C.3     1  UNL1        0.1001
      2 C          60.6525   89.4940   10.8719 C.3     1  UNL1        0.1443
      3 O          59.9083   89.1948   12.1395 O.3     1  UNL1       -0.3813
      4 H          60.2507   89.7532   12.8549 H       1  UNL1        0.2105
      5 C          60.3104   88.7588    9.6100 C.3     1  UNL1        0.1041
      6 N          60.2394   89.4983    8.3069 N.am    1  UNL1       -0.3012
      7 C          59.3448   89.0013    7.2103 C.2     1  UNL1        0.2527
      8 O          58.5211   87.7647    7.4168 O.2     1  UNL1       -0.2724
      9 H          60.7800   90.3098    8.1714 H       1  UNL1        0.1495
     10 C          59.2738   89.7407    5.9072 C.3     1  UNL1        0.2269
     11 O          58.2475   90.8170    5.7105 O.3     1  UNL1       -0.3418
     12 C          58.4886   91.9096    4.7115 C.3     1  UNL1        0.1748
     13 C          60.0394   87.2841    9.6513 C.3     1  UNL1        0.0484
     14 C          62.7790   84.7116   10.9268 C.ar    1  UNL1        0.0423
     15 C          63.4647   84.3657    9.6383 C.ar    1  UNL1        0.0082
     16 C          63.0087   84.9925    8.3542 C.ar    1  UNL1        0.0003
     17 C          61.8669   85.9653    8.3585 C.ar    1  UNL1       -0.0042
     18 C          61.1812   86.3112    9.6470 C.ar    1  UNL1       -0.0198
     19 C          61.6373   85.6844   10.9311 C.ar    1  UNL1        0.0041
     20 C          63.6912   83.4578   13.4950 C.1     1  UNL1       -0.0092
     21 C          63.2351   84.0847   12.2109 C.1     1  UNL1       -0.0512
     22 N          63.1265   90.1613   11.3012 N.3     1  UNL1       -0.2928
     23 H          63.7636   90.5309   10.5957 H       1  UNL1        0.1236
     24 C          63.6414   90.6209   12.6330 C.3     1  UNL1        0.0849
     25 C          63.1664   89.9560   13.8909 C.3     1  UNL1        0.0604
     26 C          63.6813   90.4155   15.2226 C.3     1  UNL1        0.1363
     27 C          62.7310   89.2986   15.5382 C.3     1  UNL1        0.0402
     28 C          63.0094   89.4751   17.0016 C.3     1  UNL1        0.0072
     29 C          63.9597   90.5921   16.6860 C.3     1  UNL1        0.0402
     30 O          64.6712   91.5400   15.2966 O.3     1  UNL1       -0.4676
     31 C          65.1462   92.2049   14.0387 C.ar    1  UNL1        0.2216
     32 N          66.1362   93.3295   14.1127 N.ar    1  UNL1       -0.2107
     33 C          66.6113   93.9944   12.8548 C.ar    1  UNL1        0.0977
     34 C          66.0963   93.5348   11.5230 C.ar    1  UNL1       -0.0031
     35 C          65.1064   92.4103   11.4491 C.ar    1  UNL1       -0.0011
     36 C          64.6313   91.7454   12.7069 C.ar    1  UNL1        0.0449
     37 C          66.5714   94.1997   10.2651 C.3     1  UNL1        0.0279
     38 C          67.5989   93.5275    9.4034 C.3     1  UNL1        0.0041
     39 C          67.6757   92.3923   10.3808 C.3     1  UNL1        0.0003
     40 C          67.5219   94.6628    8.4260 C.3     1  UNL1        0.0003
     41 C          68.6263   92.8552    8.5418 C.3     1  UNL1        0.0003
@<TRIPOS>BOND
     1    20    21    3
     2    21    14    1
     3    14    15   ar
     4    15    16   ar
     5    16    17   ar
     6    17    18   ar
     7    18    13    1
     8     5    13    1
     9     5     6    1
    10     6     7   am
    11     7     8    2
    12     7    10    1
    13    10    11    1
    14    11    12    1
    15     5     2    1
    16     2     3    1
    17     2     1    1
    18     1    22    1
    19    24    22    1
    20    24    25    1
    21    25    26    1
    22    26    27    1
    23    27    28    1
    24    28    29    1
    25    26    30    1
    26    30    31    1
    27    31    32   ar
    28    32    33   ar
    29    33    34   ar
    30    34    37    1
    31    37    38    1
    32    38    39    1
    33    38    40    1
    34    38    41    1
    35    34    35   ar
    36    35    36   ar
    37    18    19   ar
    38    19    14   ar
    39    36    24    1
    40    29    26    1
    41    36    31   ar
    42     6     9    1
    43     3     4    1
    44    22    23    1
@<TRIPOS>MOLECULE
*****
 41 44 0 0 0
SMALL
GASTEIGER

@<TRIPOS>ATOM
      1 C          62.9548   90.3210   12.2003 C.3     1  UNL1        0.1001
      2 C          64.0922   90.4333   13.1718 C.3     1  UNL1        0.1443
      3 O          64.1512   89.5268   14.3655 O.3     1  UNL1       -0.3813
      4 H          63.3840   88.9332   14.3590 H       1  UNL1        0.2105
      5 C          65.1705   91.4520   12.9497 C.3     1  UNL1        0.1041
      6 N          66.4253   91.4071   13.7704 N.am    1  UNL1       -0.3012
      7 C          66.4694   92.0792   15.1106 C.2     1  UNL1        0.2527
      8 O          65.2586   92.7964   15.6302 O.2     1  UNL1       -0.2724
      9 H          67.2199   90.9364   13.4294 H       1  UNL1        0.1495
     10 C          67.7241   92.0343   15.9313 C.3     1  UNL1        0.2269
     11 O          68.9403   92.7901   15.4841 O.3     1  UNL1       -0.3418
     12 C          69.2765   94.1098   16.1128 C.3     1  UNL1        0.1748
     13 C          64.9940   92.5157   11.9070 C.3     1  UNL1        0.0484
     14 C          67.1736   94.3785    9.1630 C.ar    1  UNL1        0.0423
     15 C          68.3498   93.4535    9.0592 C.ar    1  UNL1        0.0082
     16 C          68.4074   92.2158    9.9047 C.ar    1  UNL1        0.0003
     17 C          67.2889   91.9032   10.8539 C.ar    1  UNL1       -0.0042
     18 C          66.1126   92.8283   10.9577 C.ar    1  UNL1       -0.0198
     19 C          66.0550   94.0660   10.1122 C.ar    1  UNL1        0.0041
     20 C          67.0584   96.8539    7.4720 C.1     1  UNL1       -0.0092
     21 C          67.1160   95.6162    8.3175 C.1     1  UNL1       -0.0512
     22 N          61.9083   89.2632   12.3897 N.3     1  UNL1       -0.2928
     23 H          61.0372   89.7467   12.6082 H       1  UNL1        0.1236
     24 C          61.6035   88.3024   11.2788 C.3     1  UNL1        0.0849
     25 C          60.8030   88.7554   10.0939 C.3     1  UNL1        0.0604
     26 C          60.4981   87.7946    8.9831 C.3     1  UNL1        0.1363
     27 C          59.8541   89.0844    8.5685 C.3     1  UNL1        0.0402
     28 C          59.3659   88.4353    7.3074 C.3     1  UNL1        0.0072
     29 C          60.0099   87.1455    7.7220 C.3     1  UNL1        0.0402
     30 O          60.9937   86.3809    9.0572 O.3     1  UNL1       -0.4676
     31 C          61.7942   85.9278   10.2421 C.ar    1  UNL1        0.2216
     32 N          62.2898   84.5140   10.3161 N.ar    1  UNL1       -0.2107
     33 C          63.0903   84.0609   11.5010 C.ar    1  UNL1        0.0977
     34 C          63.3952   85.0218   12.6118 C.ar    1  UNL1       -0.0031
     35 C          62.8996   86.4356   12.5378 C.ar    1  UNL1       -0.0011
     36 C          62.0991   86.8886   11.3529 C.ar    1  UNL1        0.0449
     37 C          64.1957   84.5688   13.7967 C.3     1  UNL1        0.0279
     38 C          63.8965   85.1203   15.1592 C.3     1  UNL1        0.0041
     39 C          65.0489   86.0713   15.0273 C.3     1  UNL1        0.0003
     40 C          62.7440   84.1692   15.2912 C.3     1  UNL1        0.0003
     41 C          63.5974   85.6719   16.5216 C.3     1  UNL1        0.0003
@<TRIPOS>BOND
     1    20    21    3
     2    21    14    1
     3    14    15   ar
     4    15    16   ar
     5    16    17   ar
     6    17    18   ar
     7    18    13    1
     8     5    13    1
     9     5     6    1
    10     6     7   am
    11     7     8    2
    12     7    10    1
    13    10    11    1
    14    11    12    1
    15     5     2    1
    16     2     3    1
    17     2     1    1
    18     1    22    1
    19    24    22    1
    20    24    25    1
    21    25    26    1
    22    26    27    1
    23    27    28    1
    24    28    29    1
    25    26    30    1
    26    30    31    1
    27    31    32   ar
    28    32    33   ar
    29    33    34   ar
    30    34    37    1
    31    37    38    1
    32    38    39    1
    33    38    40    1
    34    38    41    1
    35    34    35   ar
    36    35    36   ar
    37    18    19   ar
    38    19    14   ar
    39    36    24    1
    40    29    26    1
    41    36    31   ar
    42     6     9    1
    43     3     4    1
    44    22    23    1
@<TRIPOS>MOLECULE
*****
 41 44 0 0 0
SMALL
GASTEIGER

@<TRIPOS>ATOM
      1 C          64.5638   86.9667   14.2847 C.3     1  UNL1        0.1001
      2 C          64.0668   85.5912   14.6182 C.3     1  UNL1        0.1443
      3 O          64.2760   85.0313   15.9940 O.3     1  UNL1       -0.3813
      4 H          64.7446   85.6818   16.5400 H       1  UNL1        0.2105
      5 C          63.3606   84.7757   13.5760 C.3     1  UNL1        0.1041
      6 N          63.8002   83.3684   13.2998 N.am    1  UNL1       -0.3012
      7 C          62.9997   82.2153   13.8282 C.2     1  UNL1        0.2527
      8 O          61.7595   82.4693   14.6328 O.2     1  UNL1       -0.2724
      9 H          64.6142   83.2017   12.7717 H       1  UNL1        0.1495
     10 C          63.4393   80.8080   13.5520 C.3     1  UNL1        0.2269
     11 O          62.7901   80.0217   12.4518 O.3     1  UNL1       -0.3418
     12 C          62.9187   80.4766   11.0282 C.3     1  UNL1        0.1748
     13 C          62.2148   85.3676   12.8099 C.3     1  UNL1        0.0484
     14 C          61.2861   86.2520    9.0543 C.ar    1  UNL1        0.0423
     15 C          62.3288   85.4693    8.3125 C.ar    1  UNL1        0.0082
     16 C          63.3334   84.6526    9.0699 C.ar    1  UNL1        0.0003
     17 C          63.2954   84.6187   10.5690 C.ar    1  UNL1       -0.0042
     18 C          62.2528   85.4015   11.3108 C.ar    1  UNL1       -0.0198
     19 C          61.2481   86.2181   10.5534 C.ar    1  UNL1        0.0041
     20 C          59.2768   87.8853    7.5393 C.1     1  UNL1       -0.0092
     21 C          60.2814   87.0687    8.2968 C.1     1  UNL1       -0.0512
     22 N          63.7184   88.1657   14.5969 N.3     1  UNL1       -0.2928
     23 H          64.1467   88.6271   15.3995 H       1  UNL1        0.1236
     24 C          63.5018   89.2226   13.5546 C.3     1  UNL1        0.0849
     25 C          62.2976   89.1602   12.6624 C.3     1  UNL1        0.0604
     26 C          62.0809   90.2170   11.6201 C.3     1  UNL1        0.1363
     27 C          60.9148   89.2846   11.4759 C.3     1  UNL1        0.0402
     28 C          60.3780   90.1288   10.3582 C.3     1  UNL1        0.0072
     29 C          61.5441   91.0612   10.5024 C.3     1  UNL1        0.0402
     30 O          63.0684   91.3361   11.4702 O.3     1  UNL1       -0.4676
     31 C          64.2725   91.3984   12.3625 C.ar    1  UNL1        0.2216
     32 N          65.2600   92.5176   12.2125 N.ar    1  UNL1       -0.2107
     33 C          66.4642   92.5799   13.1047 C.ar    1  UNL1        0.0977
     34 C          66.6808   91.5230   14.1470 C.ar    1  UNL1       -0.0031
     35 C          65.6934   90.4040   14.2970 C.ar    1  UNL1       -0.0011
     36 C          64.4892   90.3416   13.4047 C.ar    1  UNL1        0.0449
     37 C          67.8850   91.5854   15.0393 C.3     1  UNL1        0.0279
     38 C          68.3589   92.9066   15.5682 C.3     1  UNL1        0.0041
     39 C          67.1103   93.0250   16.3910 C.3     1  UNL1        0.0003
     40 C          69.6075   92.7882   14.7454 C.3     1  UNL1        0.0003
     41 C          68.8327   94.2278   16.0972 C.3     1  UNL1        0.0003
@<TRIPOS>BOND
     1    20    21    3
     2    21    14    1
     3    14    15   ar
     4    15    16   ar
     5    16    17   ar
     6    17    18   ar
     7    18    13    1
     8     5    13    1
     9     5     6    1
    10     6     7   am
    11     7     8    2
    12     7    10    1
    13    10    11    1
    14    11    12    1
    15     5     2    1
    16     2     3    1
    17     2     1    1
    18     1    22    1
    19    24    22    1
    20    24    25    1
    21    25    26    1
    22    26    27    1
    23    27    28    1
    24    28    29    1
    25    26    30    1
    26    30    31    1
    27    31    32   ar
    28    32    33   ar
    29    33    34   ar
    30    34    37    1
    31    37    38    1
    32    38    39    1
    33    38    40    1
    34    38    41    1
    35    34    35   ar
    36    35    36   ar
    37    18    19   ar
    38    19    14   ar
    39    36    24    1
    40    29    26    1
    41    36    31   ar
    42     6     9    1
    43     3     4    1
    44    22    23    1
@<TRIPOS>MOLECULE
*****
 41 44 0 0 0
SMALL
GASTEIGER

@<TRIPOS>ATOM
      1 C          61.6534   90.5361   11.6288 C.3     1  UNL1        0.1001
      2 C          62.8159   91.0942   10.8624 C.3     1  UNL1        0.1443
      3 O          62.7775   91.1317    9.3634 O.3     1  UNL1       -0.3813
      4 H          61.9373   90.7600    9.0521 H       1  UNL1        0.2105
      5 C          64.0167   91.6149   11.5952 C.3     1  UNL1        0.1041
      6 N          64.5224   92.9995   11.3179 N.am    1  UNL1       -0.3012
      7 C          65.9186   93.1999   10.8074 C.2     1  UNL1        0.2527
      8 O          66.8091   92.0154   10.5743 O.2     1  UNL1       -0.2724
      9 H          63.9380   93.7769   11.4709 H       1  UNL1        0.1495
     10 C          66.4243   94.5845   10.5301 C.3     1  UNL1        0.2269
     11 O          67.6320   94.7822    9.6625 O.3     1  UNL1       -0.3418
     12 C          67.5657   95.7085    8.4846 C.3     1  UNL1        0.1748
     13 C          64.7118   90.7508   12.6052 C.3     1  UNL1        0.0484
     14 C          66.5627   92.5748   15.6047 C.ar    1  UNL1        0.0423
     15 C          65.5828   92.3540   16.7187 C.ar    1  UNL1        0.0082
     16 C          64.3125   91.5988   16.4616 C.ar    1  UNL1        0.0003
     17 C          64.0222   91.0644   15.0904 C.ar    1  UNL1       -0.0042
     18 C          65.0022   91.2852   13.9764 C.ar    1  UNL1       -0.0198
     19 C          66.2724   92.0404   14.2336 C.ar    1  UNL1        0.0041
     20 C          69.1032   94.0852   16.1192 C.1     1  UNL1       -0.0092
     21 C          67.8330   93.3300   15.8620 C.1     1  UNL1       -0.0512
     22 N          61.6664   89.1036   12.0734 N.3     1  UNL1       -0.2928
     23 H          60.9420   89.0097   12.7853 H       1  UNL1        0.1236
     24 C          61.4383   88.0066   11.0760 C.3     1  UNL1        0.0849
     25 C          60.6231   88.2701    9.8448 C.3     1  UNL1        0.0604
     26 C          60.3949   87.1732    8.8474 C.3     1  UNL1        0.1363
     27 C          59.6719   88.3627    8.2884 C.3     1  UNL1        0.0402
     28 C          59.2420   87.5457    7.1061 C.3     1  UNL1        0.0072
     29 C          59.9650   86.3562    7.6651 C.3     1  UNL1        0.0402
     30 O          60.9820   85.8128    9.0814 O.3     1  UNL1       -0.4676
     31 C          61.7972   85.5494   10.3127 C.ar    1  UNL1        0.2216
     32 N          62.3843   84.1890   10.5466 N.ar    1  UNL1       -0.2107
     33 C          63.1995   83.9255   11.7779 C.ar    1  UNL1        0.0977
     34 C          63.4276   85.0225   12.7752 C.ar    1  UNL1       -0.0031
     35 C          62.8406   86.3829   12.5413 C.ar    1  UNL1       -0.0011
     36 C          62.0253   86.6463   11.3100 C.ar    1  UNL1        0.0449
     37 C          64.2428   84.7591   14.0065 C.3     1  UNL1        0.0279
     38 C          63.8447   85.3743   15.3154 C.3     1  UNL1        0.0041
     39 C          62.8173   84.2986   15.5084 C.3     1  UNL1        0.0003
     40 C          64.8721   86.4500   15.1223 C.3     1  UNL1        0.0003
     41 C          63.4465   85.9894   16.6242 C.3     1  UNL1        0.0003
@<TRIPOS>BOND
     1    20    21    3
     2    21    14    1
     3    14    15   ar
     4    15    16   ar
     5    16    17   ar
     6    17    18   ar
     7    18    13    1
     8     5    13    1
     9     5     6    1
    10     6     7   am
    11     7     8    2
    12     7    10    1
    13    10    11    1
    14    11    12    1
    15     5     2    1
    16     2     3    1
    17     2     1    1
    18     1    22    1
    19    24    22    1
    20    24    25    1
    21    25    26    1
    22    26    27    1
    23    27    28    1
    24    28    29    1
    25    26    30    1
    26    30    31    1
    27    31    32   ar
    28    32    33   ar
    29    33    34   ar
    30    34    37    1
    31    37    38    1
    32    38    39    1
    33    38    40    1
    34    38    41    1
    35    34    35   ar
    36    35    36   ar
    37    18    19   ar
    38    19    14   ar
    39    36    24    1
    40    29    26    1
    41    36    31   ar
    42     6     9    1
    43     3     4    1
    44    22    23    1
@<TRIPOS>MOLECULE
*****
 41 44 0 0 0
SMALL
GASTEIGER

@<TRIPOS>ATOM
      1 C          62.9188   84.7698   11.2697 C.3     1  UNL1        0.1001
      2 C          63.9170   83.9553   12.0381 C.3     1  UNL1        0.1443
      3 O          65.0354   83.2639   11.3162 O.3     1  UNL1       -0.3813
      4 H          64.9675   83.4449   10.3657 H       1  UNL1        0.2105
      5 C          63.7967   83.8323   13.5281 C.3     1  UNL1        0.1041
      6 N          62.8886   82.7980   14.1244 N.am    1  UNL1       -0.3012
      7 C          62.6014   81.5306   13.3754 C.2     1  UNL1        0.2527
      8 O          63.2223   81.2975   12.0299 O.2     1  UNL1       -0.2724
      9 H          62.4811   82.9510   15.0075 H       1  UNL1        0.1495
     10 C          61.6932   80.4964   13.9717 C.3     1  UNL1        0.2269
     11 O          60.3358   80.8902   14.4740 O.3     1  UNL1       -0.3418
     12 C          59.1680   79.9689   14.2801 C.3     1  UNL1        0.1748
     13 C          64.5846   84.7435   14.4219 C.3     1  UNL1        0.0484
     14 C          63.3151   87.9033   16.4601 C.ar    1  UNL1        0.0423
     15 C          62.4729   87.2429   17.5112 C.ar    1  UNL1        0.0082
     16 C          62.3346   85.7495   17.5325 C.ar    1  UNL1        0.0003
     17 C          63.0385   84.9164   16.5027 C.ar    1  UNL1       -0.0042
     18 C          63.8807   85.5767   15.4517 C.ar    1  UNL1       -0.0198
     19 C          64.0190   87.0702   15.4304 C.ar    1  UNL1        0.0041
     20 C          63.5916   90.8902   16.4176 C.1     1  UNL1       -0.0092
     21 C          63.4534   89.3968   16.4389 C.1     1  UNL1       -0.0512
     22 N          62.4485   86.0867   11.8125 N.3     1  UNL1       -0.2928
     23 H          63.2485   86.5164   12.2769 H       1  UNL1        0.1236
     24 C          61.8794   87.1198   10.8857 C.3     1  UNL1        0.0849
     25 C          60.9327   86.7102    9.7966 C.3     1  UNL1        0.0604
     26 C          60.3637   87.7433    8.8698 C.3     1  UNL1        0.1363
     27 C          59.7724   86.4429    8.4119 C.3     1  UNL1        0.0402
     28 C          59.0248   87.1641    7.3296 C.3     1  UNL1        0.0072
     29 C          59.6161   88.4644    7.7876 C.3     1  UNL1        0.0402
     30 O          60.7413   89.1858    9.0321 O.3     1  UNL1       -0.4676
     31 C          61.6880   89.5954   10.1212 C.ar    1  UNL1        0.2216
     32 N          62.0656   91.0380   10.2834 N.ar    1  UNL1       -0.2107
     33 C          63.0123   91.4476   11.3725 C.ar    1  UNL1        0.0977
     34 C          63.5813   90.4145   12.2993 C.ar    1  UNL1       -0.0031
     35 C          63.2037   88.9719   12.1370 C.ar    1  UNL1       -0.0011
     36 C          62.2570   88.5624   11.0480 C.ar    1  UNL1        0.0449
     37 C          64.5280   90.8240   13.3883 C.3     1  UNL1        0.0279
     38 C          65.7285   91.6623   13.0625 C.3     1  UNL1        0.0041
     39 C          65.0924   92.0696   11.7667 C.3     1  UNL1        0.0003
     40 C          66.3647   91.2549   14.3585 C.3     1  UNL1        0.0003
     41 C          66.9290   92.5005   12.7367 C.3     1  UNL1        0.0003
@<TRIPOS>BOND
     1    20    21    3
     2    21    14    1
     3    14    15   ar
     4    15    16   ar
     5    16    17   ar
     6    17    18   ar
     7    18    13    1
     8     5    13    1
     9     5     6    1
    10     6     7   am
    11     7     8    2
    12     7    10    1
    13    10    11    1
    14    11    12    1
    15     5     2    1
    16     2     3    1
    17     2     1    1
    18     1    22    1
    19    24    22    1
    20    24    25    1
    21    25    26    1
    22    26    27    1
    23    27    28    1
    24    28    29    1
    25    26    30    1
    26    30    31    1
    27    31    32   ar
    28    32    33   ar
    29    33    34   ar
    30    34    37    1
    31    37    38    1
    32    38    39    1
    33    38    40    1
    34    38    41    1
    35    34    35   ar
    36    35    36   ar
    37    18    19   ar
    38    19    14   ar
    39    36    24    1
    40    29    26    1
    41    36    31   ar
    42     6     9    1
    43     3     4    1
    44    22    23    1
@<TRIPOS>MOLECULE
*****
 41 44 0 0 0
SMALL
GASTEIGER

@<TRIPOS>ATOM
      1 C          64.6310   87.4152   14.9485 C.3     1  UNL1        0.1001
      2 C          64.0017   86.1354   15.4136 C.3     1  UNL1        0.1443
      3 O          63.3334   86.0724   16.7551 O.3     1  UNL1       -0.3813
      4 H          63.3973   86.9376   17.1890 H       1  UNL1        0.2105
      5 C          64.0405   84.9187   14.5372 C.3     1  UNL1        0.1041
      6 N          64.1623   85.0694   13.0498 N.am    1  UNL1       -0.3012
      7 C          62.9314   85.2421   12.2101 C.2     1  UNL1        0.2527
      8 O          61.5787   85.2643   12.8580 O.2     1  UNL1       -0.2724
      9 H          65.0502   85.0549   12.6246 H       1  UNL1        0.1495
     10 C          63.0532   85.3928   10.7227 C.3     1  UNL1        0.2269
     11 O          63.0674   84.1769    9.8444 O.3     1  UNL1       -0.3418
     12 C          64.1710   83.1696    9.9757 C.3     1  UNL1        0.1748
     13 C          63.9576   83.5514   15.1483 C.3     1  UNL1        0.0484
     14 C          61.3496   80.8285   13.9096 C.ar    1  UNL1        0.0423
     15 C          62.1366   80.1551   12.8246 C.ar    1  UNL1        0.0082
     16 C          63.5306   80.6138   12.5141 C.ar    1  UNL1        0.0003
     17 C          64.1376   81.7459   13.2887 C.ar    1  UNL1       -0.0042
     18 C          63.3506   82.4193   14.3737 C.ar    1  UNL1       -0.0198
     19 C          61.9566   81.9606   14.6841 C.ar    1  UNL1        0.0041
     20 C          58.5616   79.9111   14.5303 C.1     1  UNL1       -0.0092
     21 C          59.9556   80.3698   14.2200 C.1     1  UNL1       -0.0512
     22 N          63.8542   88.6971   15.0057 N.3     1  UNL1       -0.2928
     23 H          63.8714   89.0086   15.9768 H       1  UNL1        0.1236
     24 C          64.2760   89.8676   14.1679 C.3     1  UNL1        0.0849
     25 C          65.2704   90.8543   14.7042 C.3     1  UNL1        0.0604
     26 C          65.6921   92.0248   13.8664 C.3     1  UNL1        0.1363
     27 C          66.4570   92.1695   15.1487 C.3     1  UNL1        0.0402
     28 C          67.0985   93.4202   14.6248 C.3     1  UNL1        0.0072
     29 C          66.3337   93.2755   13.3425 C.3     1  UNL1        0.0402
     30 O          65.1194   92.2087   12.4923 O.3     1  UNL1       -0.4676
     31 C          64.1250   91.2220   11.9560 C.ar    1  UNL1        0.2216
     32 N          63.5523   91.4060   10.5818 N.ar    1  UNL1       -0.2107
     33 C          62.5579   90.4193   10.0455 C.ar    1  UNL1        0.0977
     34 C          62.1361   89.2487   10.8834 C.ar    1  UNL1       -0.0031
     35 C          62.7088   89.0649   12.2575 C.ar    1  UNL1       -0.0011
     36 C          63.7033   90.0515   12.7938 C.ar    1  UNL1        0.0449
     37 C          61.1417   88.2621   10.3471 C.3     1  UNL1        0.0279
     38 C          60.4040   88.5570    9.0747 C.3     1  UNL1        0.0041
     39 C          59.8668   89.8204    9.6790 C.3     1  UNL1        0.0003
     40 C          60.9413   87.2935    8.4704 C.3     1  UNL1        0.0003
     41 C          59.6664   88.8519    7.8024 C.3     1  UNL1        0.0003
@<TRIPOS>BOND
     1    20    21    3
     2    21    14    1
     3    14    15   ar
     4    15    16   ar
     5    16    17   ar
     6    17    18   ar
     7    18    13    1
     8     5    13    1
     9     5     6    1
    10     6     7   am
    11     7     8    2
    12     7    10    1
    13    10    11    1
    14    11    12    1
    15     5     2    1
    16     2     3    1
    17     2     1    1
    18     1    22    1
    19    24    22    1
    20    24    25    1
    21    25    26    1
    22    26    27    1
    23    27    28    1
    24    28    29    1
    25    26    30    1
    26    30    31    1
    27    31    32   ar
    28    32    33   ar
    29    33    34   ar
    30    34    37    1
    31    37    38    1
    32    38    39    1
    33    38    40    1
    34    38    41    1
    35    34    35   ar
    36    35    36   ar
    37    18    19   ar
    38    19    14   ar
    39    36    24    1
    40    29    26    1
    41    36    31   ar
    42     6     9    1
    43     3     4    1
    44    22    23    1
@<TRIPOS>MOLECULE
*****
 41 44 0 0 0
SMALL
GASTEIGER

@<TRIPOS>ATOM
      1 C          64.2083   87.0162   13.4460 C.3     1  UNL1        0.1001
      2 C          63.5716   85.7046   13.7985 C.3     1  UNL1        0.1443
      3 O          62.5110   85.1233   12.9113 O.3     1  UNL1       -0.3813
      4 H          62.3573   85.7167   12.1596 H       1  UNL1        0.2105
      5 C          63.9955   84.9743   15.0383 C.3     1  UNL1        0.1041
      6 N          63.9965   85.6807   16.3615 N.am    1  UNL1       -0.3012
      7 C          62.7004   85.9659   17.0605 C.2     1  UNL1        0.2527
      8 O          61.4031   85.5446   16.4362 O.2     1  UNL1       -0.2724
      9 H          64.8480   85.9572   16.7712 H       1  UNL1        0.1495
     10 C          62.7014   86.6723   18.3837 C.3     1  UNL1        0.2269
     11 O          63.0495   88.1296   18.4556 O.3     1  UNL1       -0.3418
     12 C          63.0505   88.9629   17.2084 C.3     1  UNL1        0.1748
     13 C          64.4183   83.5375   14.9547 C.3     1  UNL1        0.0484
     14 C          61.5996   81.0858   13.6153 C.ar    1  UNL1        0.0423
     15 C          62.1790   80.6843   12.2912 C.ar    1  UNL1        0.0082
     16 C          63.5047   81.2339   11.8550 C.ar    1  UNL1        0.0003
     17 C          64.2511   82.1849   12.7428 C.ar    1  UNL1       -0.0042
     18 C          63.6718   82.5864   14.0669 C.ar    1  UNL1       -0.0198
     19 C          62.3460   82.0369   14.5031 C.ar    1  UNL1        0.0041
     20 C          58.9481   79.9866   14.4877 C.1     1  UNL1       -0.0092
     21 C          60.2738   80.5362   14.0515 C.1     1  UNL1       -0.0512
     22 N          63.8603   88.2515   14.2224 N.3     1  UNL1       -0.2928
     23 H          64.2803   88.1470   15.1460 H       1  UNL1        0.1236
     24 C          64.2712   89.6001   13.7099 C.3     1  UNL1        0.0849
     25 C          65.2031   90.4564   14.5153 C.3     1  UNL1        0.0604
     26 C          65.6140   91.8049   14.0029 C.3     1  UNL1        0.1363
     27 C          66.3178   91.6588   15.3196 C.3     1  UNL1        0.0402
     28 C          66.9319   93.0159   15.1418 C.3     1  UNL1        0.0072
     29 C          66.2281   93.1619   13.8252 C.3     1  UNL1        0.0402
     30 O          65.0932   92.2971   12.6852 O.3     1  UNL1       -0.4676
     31 C          64.1614   91.4409   11.8799 C.ar    1  UNL1        0.2216
     32 N          63.6406   91.9332   10.5621 N.ar    1  UNL1       -0.2107
     33 C          62.7088   91.0769    9.7568 C.ar    1  UNL1        0.0977
     34 C          62.2978   89.7284   10.2692 C.ar    1  UNL1       -0.0031
     35 C          62.8186   89.2361   11.5869 C.ar    1  UNL1       -0.0011
     36 C          63.7504   90.0924   12.3922 C.ar    1  UNL1        0.0449
     37 C          61.3660   88.8721    9.4639 C.3     1  UNL1        0.0279
     38 C          61.1530   87.4358    9.8405 C.3     1  UNL1        0.0041
     39 C          60.0043   87.8363   10.7181 C.3     1  UNL1        0.0003
     40 C          62.3017   87.0353    8.9629 C.3     1  UNL1        0.0003
     41 C          60.9400   85.9996   10.2171 C.3     1  UNL1        0.0003
@<TRIPOS>BOND
     1    20    21    3
     2    21    14    1
     3    14    15   ar
     4    15    16   ar
     5    16    17   ar
     6    17    18   ar
     7    18    13    1
     8     5    13    1
     9     5     6    1
    10     6     7   am
    11     7     8    2
    12     7    10    1
    13    10    11    1
    14    11    12    1
    15     5     2    1
    16     2     3    1
    17     2     1    1
    18     1    22    1
    19    24    22    1
    20    24    25    1
    21    25    26    1
    22    26    27    1
    23    27    28    1
    24    28    29    1
    25    26    30    1
    26    30    31    1
    27    31    32   ar
    28    32    33   ar
    29    33    34   ar
    30    34    37    1
    31    37    38    1
    32    38    39    1
    33    38    40    1
    34    38    41    1
    35    34    35   ar
    36    35    36   ar
    37    18    19   ar
    38    19    14   ar
    39    36    24    1
    40    29    26    1
    41    36    31   ar
    42     6     9    1
    43     3     4    1
    44    22    23    1
@<TRIPOS>MOLECULE
*****
 41 44 0 0 0
SMALL
GASTEIGER

@<TRIPOS>ATOM
      1 C          64.3548   87.8259   14.3937 C.3     1  UNL1        0.1001
      2 C          63.8150   86.5873   15.0454 C.3     1  UNL1        0.1443
      3 O          63.2288   86.6599   16.4242 O.3     1  UNL1       -0.3813
      4 H          63.2761   87.5731   16.7480 H       1  UNL1        0.2105
      5 C          63.8614   85.2762   14.3182 C.3     1  UNL1        0.1041
      6 N          63.9491   85.2516   12.8210 N.am    1  UNL1       -0.3012
      7 C          62.6976   85.3008   11.9955 C.2     1  UNL1        0.2527
      8 O          61.3584   85.3746   12.6673 O.2     1  UNL1       -0.2724
      9 H          64.8280   85.2032   12.3801 H       1  UNL1        0.1495
     10 C          62.7853   85.2762   10.4983 C.3     1  UNL1        0.2269
     11 O          63.8140   84.4198    9.8212 O.3     1  UNL1       -0.3418
     12 C          63.8987   82.9564   10.1395 C.3     1  UNL1        0.1748
     13 C          63.8201   83.9897   15.0883 C.3     1  UNL1        0.0484
     14 C          61.4541   80.9969   13.9952 C.ar    1  UNL1        0.0423
     15 C          62.3734   80.2217   13.0985 C.ar    1  UNL1        0.0082
     16 C          63.7749   80.7025   12.8651 C.ar    1  UNL1        0.0003
     17 C          64.2571   81.9585   13.5283 C.ar    1  UNL1       -0.0042
     18 C          63.3378   82.7336   14.4250 C.ar    1  UNL1       -0.0198
     19 C          61.9363   82.2528   14.6584 C.ar    1  UNL1        0.0041
     20 C          58.6510   80.0351   14.4619 C.1     1  UNL1       -0.0092
     21 C          60.0525   80.5160   14.2286 C.1     1  UNL1       -0.0512
     22 N          63.4819   89.0367   14.2456 N.3     1  UNL1       -0.2928
     23 H          63.9333   89.7903   14.7641 H       1  UNL1        0.1236
     24 C          63.1719   89.5755   12.8804 C.3     1  UNL1        0.0849
     25 C          62.1218   88.9176   12.0351 C.3     1  UNL1        0.0604
     26 C          61.8119   89.4563   10.6700 C.3     1  UNL1        0.1363
     27 C          60.8936   88.2826   10.8419 C.3     1  UNL1        0.0402
     28 C          60.3267   88.5259    9.4746 C.3     1  UNL1        0.0072
     29 C          61.2449   89.6996    9.3027 C.3     1  UNL1        0.0402
     30 O          62.5520   90.6529   10.1501 O.3     1  UNL1       -0.4676
     31 C          63.6022   91.3107   10.9953 C.ar    1  UNL1        0.2216
     32 N          64.3423   92.5074   10.4754 N.ar    1  UNL1       -0.2107
     33 C          65.3925   93.1652   11.3206 C.ar    1  UNL1        0.0977
     34 C          65.7024   92.6265   12.6859 C.ar    1  UNL1       -0.0031
     35 C          64.9622   91.4299   13.2058 C.ar    1  UNL1       -0.0011
     36 C          63.9121   90.7720   12.3605 C.ar    1  UNL1        0.0449
     37 C          66.7525   93.2843   13.5311 C.3     1  UNL1        0.0279
     38 C          67.4773   92.4919   14.5785 C.3     1  UNL1        0.0041
     39 C          66.6288   93.1224   15.6426 C.3     1  UNL1        0.0003
     40 C          68.3257   91.8613   13.5142 C.3     1  UNL1        0.0003
     41 C          68.2019   91.6995   15.6258 C.3     1  UNL1        0.0003
@<TRIPOS>BOND
     1    20    21    3
     2    21    14    1
     3    14    15   ar
     4    15    16   ar
     5    16    17   ar
     6    17    18   ar
     7    18    13    1
     8     5    13    1
     9     5     6    1
    10     6     7   am
    11     7     8    2
    12     7    10    1
    13    10    11    1
    14    11    12    1
    15     5     2    1
    16     2     3    1
    17     2     1    1
    18     1    22    1
    19    24    22    1
    20    24    25    1
    21    25    26    1
    22    26    27    1
    23    27    28    1
    24    28    29    1
    25    26    30    1
    26    30    31    1
    27    31    32   ar
    28    32    33   ar
    29    33    34   ar
    30    34    37    1
    31    37    38    1
    32    38    39    1
    33    38    40    1
    34    38    41    1
    35    34    35   ar
    36    35    36   ar
    37    18    19   ar
    38    19    14   ar
    39    36    24    1
    40    29    26    1
    41    36    31   ar
    42     6     9    1
    43     3     4    1
    44    22    23    1
