@<TRIPOS>MOLECULE
*****
 35 38 0 0 0
SMALL
GASTEIGER

@<TRIPOS>ATOM
      1 C          59.0449   95.0708   -0.1432 C.ar    1  UNL1       -0.0044
      2 C          59.7708   95.6303    1.0442 C.ar    1  UNL1       -0.0014
      3 C          60.1118   94.7403    2.2025 C.ar    1  UNL1        0.0144
      4 C          59.7269   93.2909    2.1733 C.ar    1  UNL1        0.0516
      5 C          59.0010   92.7314    0.9859 C.ar    1  UNL1        0.0144
      6 C          58.6600   93.6214   -0.1723 C.ar    1  UNL1       -0.0014
      7 N          60.0679   92.4009    3.3317 N.am    1  UNL1       -0.2681
      8 C          58.9749   91.8253    4.1825 C.2     1  UNL1        0.3077
      9 O          57.5408   92.1398    3.8751 O.2     1  UNL1       -0.2522
     10 N          59.3159   90.9353    5.3409 N.am    1  UNL1       -0.2632
     11 C          58.5254   90.1995    6.3817 C.3     1  UNL1        0.1010
     12 C          59.7982   89.6767    6.9789 C.3     1  UNL1        0.0636
     13 C          60.5888   90.4127    5.9380 C.3     1  UNL1        0.1010
     14 H          61.0092   92.1945    3.5335 H       1  UNL1        0.1564
     15 C          60.1393   88.7868    8.1372 C.ar    1  UNL1        0.0001
     16 C          60.1250   87.2965    7.9676 C.ar    1  UNL1        0.0002
     17 C          60.4661   86.4065    9.1259 C.ar    1  UNL1        0.0336
     18 C          60.8214   87.0068   10.4538 C.ar    1  UNL1        0.1254
     19 N          61.1625   86.1169   11.6121 N.pl3   1  UNL1       -0.3426
     20 N          60.8356   88.4972   10.6234 N.ar    1  UNL1       -0.2299
     21 C          60.4946   89.3871    9.4651 C.ar    1  UNL1        0.0961
     22 H          61.1531   85.1387   11.5007 H       1  UNL1        0.1437
     23 H          61.3956   86.5109   12.4836 H       1  UNL1        0.1437
     24 C          59.7965   96.5284   -2.1583 C.3     1  UNL1        0.0262
     25 C          58.7039   95.9608   -1.3015 C.3     1  UNL1        0.0942
     26 N          57.2703   96.2832   -1.6030 N.am    1  UNL1       -0.3011
     27 C          56.4848   95.4086   -2.5346 C.2     1  UNL1        0.2372
     28 O          57.1329   94.2116   -3.1649 O.2     1  UNL1       -0.2736
     29 H          56.8450   97.0689   -1.1894 H       1  UNL1        0.1497
     30 C          55.0512   95.7310   -2.8361 C.3     1  UNL1        0.1348
     31 C          53.9067   95.6475   -1.8701 C.3     1  UNL1        0.0267
     32 C          52.6586   96.0584   -2.5934 C.3     1  UNL1        0.0192
     33 C          53.0316   96.3959   -4.0066 C.3     1  UNL1        0.0726
     34 N          54.5103   96.1935   -4.1565 N.3     1  UNL1       -0.2653
     35 C          55.3081   96.4149   -5.4073 C.3     1  UNL1        0.0900
@<TRIPOS>BOND
     1    25    24    1
     2    25    26    1
     3    26    27   am
     4    27    28    2
     5    30    27    1
     6    30    31    1
     7    31    32    1
     8    32    33    1
     9    33    34    1
    10    34    35    1
    11    25     1    1
    12     1     2   ar
    13     2     3   ar
    14     3     4   ar
    15     4     7    1
    16     7     8   am
    17     8     9    2
    18     8    10   am
    19    10    11    1
    20    11    12    1
    21    12    15    1
    22    15    16   ar
    23    16    17   ar
    24    17    18   ar
    25    18    19    1
    26    18    20   ar
    27    20    21   ar
    28    12    13    1
    29     4     5   ar
    30     5     6   ar
    31    34    30    1
    32     6     1   ar
    33    13    10    1
    34    21    15   ar
    35    26    29    1
    36     7    14    1
    37    19    22    1
    38    19    23    1
@<TRIPOS>MOLECULE
*****
 35 38 0 0 0
SMALL
GASTEIGER

@<TRIPOS>ATOM
      1 C          60.1149   88.1951    9.2262 C.ar    1  UNL1       -0.0044
      2 C          59.5304   87.5327    8.0140 C.ar    1  UNL1       -0.0014
      3 C          59.2548   88.3380    6.7789 C.ar    1  UNL1        0.0144
      4 C          59.5637   89.8056    6.7560 C.ar    1  UNL1        0.0516
      5 C          60.1482   90.4680    7.9682 C.ar    1  UNL1        0.0144
      6 C          60.4238   89.6627    9.2033 C.ar    1  UNL1       -0.0014
      7 N          59.2880   90.6109    5.5208 N.am    1  UNL1       -0.2681
      8 C          60.4248   91.2090    4.7463 C.2     1  UNL1        0.3077
      9 O          61.8372   91.0019    5.2068 O.2     1  UNL1       -0.2522
     10 N          60.1492   92.0143    3.5111 N.am    1  UNL1       -0.2632
     11 C          60.9949   92.7433    2.5096 C.3     1  UNL1        0.1010
     12 C          59.7593   93.1531    1.7643 C.3     1  UNL1        0.0636
     13 C          58.9135   92.4241    2.7659 C.3     1  UNL1        0.1010
     14 H          58.3610   90.7469    5.2185 H       1  UNL1        0.1564
     15 C          59.4836   93.9583    0.5292 C.ar    1  UNL1        0.0001
     16 C          59.1622   93.2653   -0.7616 C.ar    1  UNL1        0.0002
     17 C          58.8865   94.0705   -1.9969 C.ar    1  UNL1        0.0336
     18 C          58.9323   95.5688   -1.9411 C.ar    1  UNL1        0.1254
     19 N          58.6566   96.3740   -3.1762 N.pl3   1  UNL1       -0.3426
     20 N          59.2537   96.2618   -0.6502 N.ar    1  UNL1       -0.2299
     21 C          59.5294   95.4566    0.5849 C.ar    1  UNL1        0.0961
     22 H          58.4456   95.9192   -4.0235 H       1  UNL1        0.1437
     23 H          58.6866   97.3574   -3.1397 H       1  UNL1        0.1437
     24 C          59.9692   87.9083   11.8043 C.3     1  UNL1        0.0262
     25 C          60.3905   87.3898   10.4614 C.3     1  UNL1        0.0942
     26 N          61.0875   86.0659   10.3536 N.am    1  UNL1       -0.3011
     27 C          62.2867   85.7780   11.2073 C.2     1  UNL1        0.2372
     28 O          62.7889   86.8139   12.1690 O.2     1  UNL1       -0.2736
     29 H          60.7579   85.3861    9.7224 H       1  UNL1        0.1497
     30 C          62.9837   84.4541   11.0995 C.3     1  UNL1        0.1348
     31 C          63.6194   83.8905    9.8633 C.3     1  UNL1        0.0267
     32 C          64.1960   82.5495   10.2087 C.3     1  UNL1        0.0192
     33 C          63.9166   82.2843   11.6584 C.3     1  UNL1        0.0726
     34 N          63.1674   83.4614   12.2089 N.3     1  UNL1       -0.2653
     35 C          62.6863   83.6183   13.6210 C.3     1  UNL1        0.0900
@<TRIPOS>BOND
     1    25    24    1
     2    25    26    1
     3    26    27   am
     4    27    28    2
     5    30    27    1
     6    30    31    1
     7    31    32    1
     8    32    33    1
     9    33    34    1
    10    34    35    1
    11    25     1    1
    12     1     2   ar
    13     2     3   ar
    14     3     4   ar
    15     4     7    1
    16     7     8   am
    17     8     9    2
    18     8    10   am
    19    10    11    1
    20    11    12    1
    21    12    15    1
    22    15    16   ar
    23    16    17   ar
    24    17    18   ar
    25    18    19    1
    26    18    20   ar
    27    20    21   ar
    28    12    13    1
    29     4     5   ar
    30     5     6   ar
    31    34    30    1
    32     6     1   ar
    33    13    10    1
    34    21    15   ar
    35    26    29    1
    36     7    14    1
    37    19    22    1
    38    19    23    1
@<TRIPOS>MOLECULE
*****
 35 38 0 0 0
SMALL
GASTEIGER

@<TRIPOS>ATOM
      1 C          60.0477   88.2813    9.2367 C.ar    1  UNL1       -0.0044
      2 C          59.4614   87.6129    8.0287 C.ar    1  UNL1       -0.0014
      3 C          59.2067   88.4068    6.7818 C.ar    1  UNL1        0.0144
      4 C          59.5383   89.8692    6.7430 C.ar    1  UNL1        0.0516
      5 C          60.1246   90.5376    7.9510 C.ar    1  UNL1        0.0144
      6 C          60.3793   89.7437    9.1979 C.ar    1  UNL1       -0.0014
      7 N          59.2836   90.6631    5.4960 N.am    1  UNL1       -0.2681
      8 C          60.4349   91.2299    4.7195 C.2     1  UNL1        0.3077
      9 O          61.8410   91.0028    5.1898 O.2     1  UNL1       -0.2522
     10 N          60.1802   92.0238    3.4725 N.am    1  UNL1       -0.2632
     11 C          61.0441   92.7239    2.4658 C.3     1  UNL1        0.1010
     12 C          59.8199   93.1466    1.7090 C.3     1  UNL1        0.0636
     13 C          58.9559   92.4465    2.7158 C.3     1  UNL1        0.1010
     14 H          58.3607   90.8121    5.1872 H       1  UNL1        0.1564
     15 C          59.5651   93.9404    0.4621 C.ar    1  UNL1        0.0001
     16 C          59.3528   93.2361   -0.8450 C.ar    1  UNL1        0.0002
     17 C          59.0980   94.0300   -2.0920 C.ar    1  UNL1        0.0336
     18 C          59.0556   95.5282   -2.0318 C.ar    1  UNL1        0.1254
     19 N          58.8008   96.3220   -3.2787 N.pl3   1  UNL1       -0.3426
     20 N          59.2679   96.2325   -0.7245 N.ar    1  UNL1       -0.2299
     21 C          59.5227   95.4386    0.5224 C.ar    1  UNL1        0.0961
     22 H          58.6614   95.8598   -4.1366 H       1  UNL1        0.1437
     23 H          58.7730   97.3054   -3.2391 H       1  UNL1        0.1437
     24 C          59.8452   88.0112   11.8128 C.3     1  UNL1        0.0262
     25 C          60.3024   87.4874   10.4837 C.3     1  UNL1        0.0942
     26 N          61.0144   86.1697   10.4015 N.am    1  UNL1       -0.3011
     27 C          62.2500   85.9326   11.2182 C.2     1  UNL1        0.2372
     28 O          62.7737   87.0133   12.1171 O.2     1  UNL1       -0.2736
     29 H          60.6707   85.4605    9.8115 H       1  UNL1        0.1497
     30 C          62.9620   84.6150   11.1360 C.3     1  UNL1        0.1348
     31 C          63.2649   83.7031   12.2878 C.3     1  UNL1        0.0267
     32 C          63.9862   82.5023   11.7512 C.3     1  UNL1        0.0192
     33 C          64.1291   82.6721   10.2677 C.3     1  UNL1        0.0726
     34 N          63.4961   83.9777    9.8875 N.3     1  UNL1       -0.2653
     35 C          63.4120   84.5464    8.5020 C.3     1  UNL1        0.0900
@<TRIPOS>BOND
     1    25    24    1
     2    25    26    1
     3    26    27   am
     4    27    28    2
     5    30    27    1
     6    30    31    1
     7    31    32    1
     8    32    33    1
     9    33    34    1
    10    34    35    1
    11    25     1    1
    12     1     2   ar
    13     2     3   ar
    14     3     4   ar
    15     4     7    1
    16     7     8   am
    17     8     9    2
    18     8    10   am
    19    10    11    1
    20    11    12    1
    21    12    15    1
    22    15    16   ar
    23    16    17   ar
    24    17    18   ar
    25    18    19    1
    26    18    20   ar
    27    20    21   ar
    28    12    13    1
    29     4     5   ar
    30     5     6   ar
    31    34    30    1
    32     6     1   ar
    33    13    10    1
    34    21    15   ar
    35    26    29    1
    36     7    14    1
    37    19    22    1
    38    19    23    1
@<TRIPOS>MOLECULE
*****
 35 38 0 0 0
SMALL
GASTEIGER

@<TRIPOS>ATOM
      1 C          59.9746   94.6576   -1.0442 C.ar    1  UNL1       -0.0044
      2 C          60.6205   95.2961    0.1495 C.ar    1  UNL1       -0.0014
      3 C          60.8081   94.5080    1.4119 C.ar    1  UNL1        0.0144
      4 C          60.3497   93.0814    1.4805 C.ar    1  UNL1        0.0516
      5 C          59.7038   92.4429    0.2868 C.ar    1  UNL1        0.0144
      6 C          59.5162   93.2310   -0.9756 C.ar    1  UNL1       -0.0014
      7 N          60.5373   92.2933    2.7430 N.am    1  UNL1       -0.2681
      8 C          59.3499   91.9328    3.5856 C.2     1  UNL1        0.3077
      9 O          57.9748   92.3605    3.1658 O.2     1  UNL1       -0.2522
     10 N          59.5375   91.1447    4.8481 N.am    1  UNL1       -0.2632
     11 C          58.6241   90.6149    5.9133 C.3     1  UNL1        0.1010
     12 C          59.8029   90.0302    6.6334 C.3     1  UNL1        0.0636
     13 C          60.7164   90.5600    5.5681 C.3     1  UNL1        0.1010
     14 H          61.4399   92.0126    3.0185 H       1  UNL1        0.1564
     15 C          59.9906   89.2421    7.8958 C.ar    1  UNL1        0.0001
     16 C          59.6749   87.7759    7.9185 C.ar    1  UNL1        0.0002
     17 C          59.8625   86.9878    9.1809 C.ar    1  UNL1        0.0336
     18 C          60.3659   87.6659   10.4206 C.ar    1  UNL1        0.1254
     19 N          60.5535   86.8778   11.6830 N.pl3   1  UNL1       -0.3426
     20 N          60.6816   89.1322   10.3978 N.ar    1  UNL1       -0.2299
     21 C          60.4939   89.9202    9.1355 C.ar    1  UNL1        0.0961
     22 H          60.3463   85.9155   11.6979 H       1  UNL1        0.1437
     23 H          60.8839   87.3229   12.4966 H       1  UNL1        0.1437
     24 C          60.2906   96.8560   -2.3923 C.3     1  UNL1        0.0262
     25 C          59.7869   95.4457   -2.3067 C.3     1  UNL1        0.0942
     26 N          59.0956   94.8235   -3.4835 N.am    1  UNL1       -0.3011
     27 C          57.5989   94.8545   -3.5767 C.2     1  UNL1        0.2372
     28 O          56.7934   95.5079   -2.4929 O.2     1  UNL1       -0.2736
     29 H          59.6243   94.3947   -4.1948 H       1  UNL1        0.1497
     30 C          56.9076   94.2323   -4.7535 C.3     1  UNL1        0.1348
     31 C          56.3971   92.8241   -4.8328 C.3     1  UNL1        0.0267
     32 C          55.7794   92.6305   -6.1860 C.3     1  UNL1        0.0192
     33 C          55.9081   93.9190   -6.9429 C.3     1  UNL1        0.0726
     34 N          56.6053   94.9090   -6.0576 N.3     1  UNL1       -0.2653
     35 C          56.9414   96.3268   -6.4139 C.3     1  UNL1        0.0900
@<TRIPOS>BOND
     1    25    24    1
     2    25    26    1
     3    26    27   am
     4    27    28    2
     5    30    27    1
     6    30    31    1
     7    31    32    1
     8    32    33    1
     9    33    34    1
    10    34    35    1
    11    25     1    1
    12     1     2   ar
    13     2     3   ar
    14     3     4   ar
    15     4     7    1
    16     7     8   am
    17     8     9    2
    18     8    10   am
    19    10    11    1
    20    11    12    1
    21    12    15    1
    22    15    16   ar
    23    16    17   ar
    24    17    18   ar
    25    18    19    1
    26    18    20   ar
    27    20    21   ar
    28    12    13    1
    29     4     5   ar
    30     5     6   ar
    31    34    30    1
    32     6     1   ar
    33    13    10    1
    34    21    15   ar
    35    26    29    1
    36     7    14    1
    37    19    22    1
    38    19    23    1
@<TRIPOS>MOLECULE
*****
 35 38 0 0 0
SMALL
GASTEIGER

@<TRIPOS>ATOM
      1 C          64.5595   90.9521   14.1948 C.ar    1  UNL1       -0.0044
      2 C          63.8787   90.7528   12.8731 C.ar    1  UNL1       -0.0014
      3 C          63.5546   89.3675   12.3978 C.ar    1  UNL1        0.0144
      4 C          63.9113   88.1815   13.2442 C.ar    1  UNL1        0.0516
      5 C          64.5920   88.3808   14.5658 C.ar    1  UNL1        0.0144
      6 C          64.9162   89.7661   15.0411 C.ar    1  UNL1       -0.0014
      7 N          63.5871   86.7962   12.7688 N.am    1  UNL1       -0.2681
      8 C          64.2155   85.6084   13.4352 C.2     1  UNL1        0.3077
      9 O          65.1681   85.8058   14.5770 O.2     1  UNL1       -0.2522
     10 N          63.8914   84.2231   12.9599 N.am    1  UNL1       -0.2632
     11 C          64.3076   82.8393   13.3619 C.3     1  UNL1        0.1010
     12 C          63.4329   82.2640   12.2876 C.3     1  UNL1        0.0636
     13 C          63.0167   83.6479   11.8855 C.3     1  UNL1        0.1010
     14 H          62.9619   86.6666   12.0194 H       1  UNL1        0.1564
     15 C          63.1088   80.8788   11.8122 C.ar    1  UNL1        0.0001
     16 C          63.2202   80.5407   10.3551 C.ar    1  UNL1        0.0002
     17 C          62.8961   79.1554    9.8797 C.ar    1  UNL1        0.0336
     18 C          62.4604   78.1083   10.8614 C.ar    1  UNL1        0.1254
     19 N          62.1363   76.7231   10.3860 N.pl3   1  UNL1       -0.3426
     20 N          62.3490   78.4465   12.3186 N.ar    1  UNL1       -0.2299
     21 C          62.6731   79.8317   12.7939 C.ar    1  UNL1        0.0961
     22 H          62.2094   76.5011    9.4297 H       1  UNL1        0.1437
     23 H          61.8503   76.0358   11.0304 H       1  UNL1        0.1437
     24 C          64.9860   92.6214   16.1394 C.3     1  UNL1        0.0262
     25 C          64.8836   92.3374   14.6701 C.3     1  UNL1        0.0942
     26 N          65.1054   93.4387   13.6761 N.am    1  UNL1       -0.3011
     27 C          66.3067   93.4081   12.7785 C.2     1  UNL1        0.2372
     28 O          67.2864   92.2762   12.8748 O.2     1  UNL1       -0.2736
     29 H          64.4625   94.1815   13.6129 H       1  UNL1        0.1497
     30 C          66.5285   94.5094   11.7845 C.3     1  UNL1        0.1348
     31 C          66.2062   95.9600   11.9892 C.3     1  UNL1        0.0267
     32 C          66.5900   96.7005   10.7425 C.3     1  UNL1        0.0192
     33 C          67.1495   95.7076    9.7673 C.3     1  UNL1        0.0726
     34 N          67.1115   94.3534   10.4113 N.3     1  UNL1       -0.2653
     35 C          67.5751   93.0688    9.7909 C.3     1  UNL1        0.0900
@<TRIPOS>BOND
     1    25    24    1
     2    25    26    1
     3    26    27   am
     4    27    28    2
     5    30    27    1
     6    30    31    1
     7    31    32    1
     8    32    33    1
     9    33    34    1
    10    34    35    1
    11    25     1    1
    12     1     2   ar
    13     2     3   ar
    14     3     4   ar
    15     4     7    1
    16     7     8   am
    17     8     9    2
    18     8    10   am
    19    10    11    1
    20    11    12    1
    21    12    15    1
    22    15    16   ar
    23    16    17   ar
    24    17    18   ar
    25    18    19    1
    26    18    20   ar
    27    20    21   ar
    28    12    13    1
    29     4     5   ar
    30     5     6   ar
    31    34    30    1
    32     6     1   ar
    33    13    10    1
    34    21    15   ar
    35    26    29    1
    36     7    14    1
    37    19    22    1
    38    19    23    1
@<TRIPOS>MOLECULE
*****
 35 38 0 0 0
SMALL
GASTEIGER

@<TRIPOS>ATOM
      1 C          65.5128   92.1104   13.5144 C.ar    1  UNL1       -0.0044
      2 C          64.6149   91.7376   12.3722 C.ar    1  UNL1       -0.0014
      3 C          63.9958   90.3724   12.3196 C.ar    1  UNL1        0.0144
      4 C          64.2746   89.3800   13.4093 C.ar    1  UNL1        0.0516
      5 C          65.1725   89.7527   14.5515 C.ar    1  UNL1        0.0144
      6 C          65.7916   91.1179   14.6041 C.ar    1  UNL1       -0.0014
      7 N          63.6553   88.0147   13.3567 N.am    1  UNL1       -0.2681
      8 C          64.2527   86.8892   14.1481 C.2     1  UNL1        0.3077
      9 O          65.4693   87.1290   14.9922 O.2     1  UNL1       -0.2522
     10 N          63.6335   85.5240   14.0955 N.am    1  UNL1       -0.2632
     11 C          63.9362   84.1971   14.7260 C.3     1  UNL1        0.1010
     12 C          62.7578   83.5933   14.0210 C.3     1  UNL1        0.0636
     13 C          62.4551   84.9202   13.3905 C.3     1  UNL1        0.1010
     14 H          62.8569   87.8573   12.8026 H       1  UNL1        0.1564
     15 C          62.1386   82.2281   13.9684 C.ar    1  UNL1        0.0001
     16 C          62.9065   81.0782   13.3871 C.ar    1  UNL1        0.0002
     17 C          62.2873   79.7129   13.3345 C.ar    1  UNL1        0.0336
     18 C          60.9002   79.4976   13.8631 C.ar    1  UNL1        0.1254
     19 N          60.2810   78.1324   13.8104 N.pl3   1  UNL1       -0.3426
     20 N          60.1322   80.6476   14.4444 N.ar    1  UNL1       -0.2299
     21 C          60.7514   82.0128   14.4970 C.ar    1  UNL1        0.0961
     22 H          60.7850   77.3777   13.4289 H       1  UNL1        0.1437
     23 H          59.3705   77.9912   14.1574 H       1  UNL1        0.1437
     24 C          66.8484   93.9271   14.8051 C.3     1  UNL1        0.0262
     25 C          66.1320   93.4757   13.5670 C.3     1  UNL1        0.0942
     26 N          66.0348   94.3895   12.3815 N.am    1  UNL1       -0.3011
     27 C          66.8022   94.0793   11.1305 C.2     1  UNL1        0.2372
     28 O          67.6668   92.8552   11.0651 O.2     1  UNL1       -0.2736
     29 H          65.4673   95.1928   12.4244 H       1  UNL1        0.1497
     30 C          66.7049   94.9931    9.9450 C.3     1  UNL1        0.1348
     31 C          67.3767   94.7916    8.6191 C.3     1  UNL1        0.0267
     32 C          67.0058   95.9428    7.7318 C.3     1  UNL1        0.0192
     33 C          66.1048   96.8558    8.5094 C.3     1  UNL1        0.0726
     34 N          65.9188   96.2688    9.8772 N.3     1  UNL1       -0.2653
     35 C          65.0919   96.8547   10.9831 C.3     1  UNL1        0.0900
@<TRIPOS>BOND
     1    25    24    1
     2    25    26    1
     3    26    27   am
     4    27    28    2
     5    30    27    1
     6    30    31    1
     7    31    32    1
     8    32    33    1
     9    33    34    1
    10    34    35    1
    11    25     1    1
    12     1     2   ar
    13     2     3   ar
    14     3     4   ar
    15     4     7    1
    16     7     8   am
    17     8     9    2
    18     8    10   am
    19    10    11    1
    20    11    12    1
    21    12    15    1
    22    15    16   ar
    23    16    17   ar
    24    17    18   ar
    25    18    19    1
    26    18    20   ar
    27    20    21   ar
    28    12    13    1
    29     4     5   ar
    30     5     6   ar
    31    34    30    1
    32     6     1   ar
    33    13    10    1
    34    21    15   ar
    35    26    29    1
    36     7    14    1
    37    19    22    1
    38    19    23    1
@<TRIPOS>MOLECULE
*****
 35 38 0 0 0
SMALL
GASTEIGER

@<TRIPOS>ATOM
      1 C          59.7610   90.0245    6.9733 C.ar    1  UNL1       -0.0044
      2 C          60.9107   90.5333    6.1553 C.ar    1  UNL1       -0.0014
      3 C          60.6547   91.2122    4.8424 C.ar    1  UNL1        0.0144
      4 C          59.2489   91.3822    4.3476 C.ar    1  UNL1        0.0516
      5 C          58.0992   90.8734    5.1656 C.ar    1  UNL1        0.0144
      6 C          58.3552   90.1946    6.4785 C.ar    1  UNL1       -0.0014
      7 N          58.9929   92.0611    3.0347 N.am    1  UNL1       -0.2681
      8 C          60.1448   92.5015    2.1809 C.2     1  UNL1        0.3077
      9 O          61.5528   92.2631    2.6399 O.2     1  UNL1       -0.2522
     10 N          59.8888   93.1804    0.8680 N.am    1  UNL1       -0.2632
     11 C          60.7527   93.7429   -0.2214 C.3     1  UNL1        0.1010
     12 C          59.5266   94.1405   -0.9886 C.3     1  UNL1        0.0636
     13 C          58.6626   93.5779    0.1009 C.3     1  UNL1        0.1010
     14 H          58.0688   92.2176    2.7334 H       1  UNL1        0.1564
     15 C          59.2705   94.8193   -2.3015 C.ar    1  UNL1        0.0001
     16 C          60.0954   94.4641   -3.5029 C.ar    1  UNL1        0.0002
     17 C          59.8394   95.1430   -4.8158 C.ar    1  UNL1        0.0336
     18 C          58.7584   96.1770   -4.9272 C.ar    1  UNL1        0.1254
     19 N          58.5024   96.8559   -6.2400 N.pl3   1  UNL1       -0.3426
     20 N          57.9336   96.5322   -3.7257 N.ar    1  UNL1       -0.2299
     21 C          58.1896   95.8533   -2.4129 C.ar    1  UNL1        0.0961
     22 H          59.0438   96.6228   -7.0286 H       1  UNL1        0.1437
     23 H          57.7929   97.5345   -6.3131 H       1  UNL1        0.1437
     24 C          59.4202   87.9975    8.5624 C.3     1  UNL1        0.0262
     25 C          60.0170   89.3456    8.2862 C.3     1  UNL1        0.0942
     26 N          60.8699   90.0149    9.3228 N.am    1  UNL1       -0.3011
     27 C          62.0166   89.2734    9.9434 C.2     1  UNL1        0.2372
     28 O          62.3105   87.8625    9.5273 O.2     1  UNL1       -0.2736
     29 H          60.6770   90.9409    9.5959 H       1  UNL1        0.1497
     30 C          62.8695   89.9428   10.9801 C.3     1  UNL1        0.1348
     31 C          63.3590   91.3600   10.9381 C.3     1  UNL1        0.0267
     32 C          64.1746   91.6055   12.1728 C.3     1  UNL1        0.0192
     33 C          64.1892   90.3400   12.9779 C.3     1  UNL1        0.0726
     34 N          63.3826   89.3123   12.2407 N.3     1  UNL1       -0.2653
     35 C          63.1329   87.9019   12.6861 C.3     1  UNL1        0.0900
@<TRIPOS>BOND
     1    25    24    1
     2    25    26    1
     3    26    27   am
     4    27    28    2
     5    30    27    1
     6    30    31    1
     7    31    32    1
     8    32    33    1
     9    33    34    1
    10    34    35    1
    11    25     1    1
    12     1     2   ar
    13     2     3   ar
    14     3     4   ar
    15     4     7    1
    16     7     8   am
    17     8     9    2
    18     8    10   am
    19    10    11    1
    20    11    12    1
    21    12    15    1
    22    15    16   ar
    23    16    17   ar
    24    17    18   ar
    25    18    19    1
    26    18    20   ar
    27    20    21   ar
    28    12    13    1
    29     4     5   ar
    30     5     6   ar
    31    34    30    1
    32     6     1   ar
    33    13    10    1
    34    21    15   ar
    35    26    29    1
    36     7    14    1
    37    19    22    1
    38    19    23    1
@<TRIPOS>MOLECULE
*****
 35 38 0 0 0
SMALL
GASTEIGER

@<TRIPOS>ATOM
      1 C          58.8569   90.9858    5.4313 C.ar    1  UNL1       -0.0044
      2 C          60.3276   90.7217    5.5624 C.ar    1  UNL1       -0.0014
      3 C          60.8123   89.5811    6.4074 C.ar    1  UNL1        0.0144
      4 C          59.8264   88.7046    7.1213 C.ar    1  UNL1        0.0516
      5 C          58.3557   88.9687    6.9902 C.ar    1  UNL1        0.0144
      6 C          57.8709   90.1093    6.1452 C.ar    1  UNL1       -0.0014
      7 N          60.3112   87.5639    7.9663 N.am    1  UNL1       -0.2681
      8 C          61.0349   87.8372    9.2513 C.2     1  UNL1        0.3077
      9 O          61.2739   89.2511    9.6915 O.2     1  UNL1       -0.2522
     10 N          61.5197   86.6966   10.0963 N.am    1  UNL1       -0.2632
     11 C          62.2555   86.5788   11.3981 C.3     1  UNL1        0.1010
     12 C          62.2053   85.0834   11.2912 C.3     1  UNL1        0.0636
     13 C          61.4695   85.2012    9.9894 C.3     1  UNL1        0.1010
     14 H          60.1543   86.6359    7.6774 H       1  UNL1        0.1564
     15 C          62.6901   83.9428   12.1362 C.ar    1  UNL1        0.0001
     16 C          63.1791   82.6827   11.4859 C.ar    1  UNL1        0.0002
     17 C          63.6640   81.5420   12.3308 C.ar    1  UNL1        0.0336
     18 C          63.6596   81.6615   13.8260 C.ar    1  UNL1        0.1254
     19 N          64.1444   80.5209   14.6709 N.pl3   1  UNL1       -0.3426
     20 N          63.1705   82.9217   14.4763 N.ar    1  UNL1       -0.2299
     21 C          62.6857   84.0623   13.6314 C.ar    1  UNL1        0.0961
     22 H          64.4654   79.6938   14.2441 H       1  UNL1        0.1437
     23 H          64.1416   80.5993   15.6523 H       1  UNL1        0.1437
     24 C          56.9212   92.2233    4.2182 C.3     1  UNL1        0.0262
     25 C          58.3721   92.1264    4.5863 C.3     1  UNL1        0.0942
     26 N          59.3382   93.1701    4.1095 N.am    1  UNL1       -0.3011
     27 C          59.7397   93.2165    2.6650 C.2     1  UNL1        0.2372
     28 O          59.1751   92.2191    1.6972 O.2     1  UNL1       -0.2736
     29 H          59.7088   93.8247    4.7447 H       1  UNL1        0.1497
     30 C          60.7058   94.2602    2.1882 C.3     1  UNL1        0.1348
     31 C          60.3904   95.7052    1.9384 C.3     1  UNL1        0.0267
     32 C          61.6466   96.3802    1.4733 C.3     1  UNL1        0.0192
     33 C          62.7384   95.3524    1.4358 C.3     1  UNL1        0.0726
     34 N          62.1570   94.0421    1.8776 N.3     1  UNL1       -0.2653
     35 C          62.8969   92.7421    1.9892 C.3     1  UNL1        0.0900
@<TRIPOS>BOND
     1    25    24    1
     2    25    26    1
     3    26    27   am
     4    27    28    2
     5    30    27    1
     6    30    31    1
     7    31    32    1
     8    32    33    1
     9    33    34    1
    10    34    35    1
    11    25     1    1
    12     1     2   ar
    13     2     3   ar
    14     3     4   ar
    15     4     7    1
    16     7     8   am
    17     8     9    2
    18     8    10   am
    19    10    11    1
    20    11    12    1
    21    12    15    1
    22    15    16   ar
    23    16    17   ar
    24    17    18   ar
    25    18    19    1
    26    18    20   ar
    27    20    21   ar
    28    12    13    1
    29     4     5   ar
    30     5     6   ar
    31    34    30    1
    32     6     1   ar
    33    13    10    1
    34    21    15   ar
    35    26    29    1
    36     7    14    1
    37    19    22    1
    38    19    23    1
@<TRIPOS>MOLECULE
*****
 35 38 0 0 0
SMALL
GASTEIGER

@<TRIPOS>ATOM
      1 C          60.9265   88.4497    9.3761 C.ar    1  UNL1       -0.0044
      2 C          61.3581   89.8678    9.1468 C.ar    1  UNL1       -0.0014
      3 C          60.8953   90.6043    7.9248 C.ar    1  UNL1        0.0144
      4 C          60.0009   89.9227    6.9321 C.ar    1  UNL1        0.0516
      5 C          59.5693   88.5046    7.1614 C.ar    1  UNL1        0.0144
      6 C          60.0322   87.7681    8.3834 C.ar    1  UNL1       -0.0014
      7 N          59.5381   90.6593    5.7101 N.am    1  UNL1       -0.2681
      8 C          60.5423   91.2291    4.7526 C.2     1  UNL1        0.3077
      9 O          62.0094   91.0623    5.0171 O.2     1  UNL1       -0.2522
     10 N          60.0795   91.9657    3.5305 N.am    1  UNL1       -0.2632
     11 C          60.7611   92.6510    2.3836 C.3     1  UNL1        0.1010
     12 C          59.4249   93.0073    1.8024 C.3     1  UNL1        0.0636
     13 C          58.7433   92.3220    2.9494 C.3     1  UNL1        0.1010
     14 H          58.5752   90.7687    5.5365 H       1  UNL1        0.1564
     15 C          58.9621   93.7439    0.5804 C.ar    1  UNL1        0.0001
     16 C          58.1394   93.0362   -0.4551 C.ar    1  UNL1        0.0002
     17 C          57.6766   93.7728   -1.6771 C.ar    1  UNL1        0.0336
     18 C          58.0364   95.2170   -1.8636 C.ar    1  UNL1        0.1254
     19 N          57.5736   95.9535   -3.0855 N.pl3   1  UNL1       -0.3426
     20 N          58.8591   95.9246   -0.8280 N.ar    1  UNL1       -0.2299
     21 C          59.3219   95.1881    0.3940 C.ar    1  UNL1        0.0961
     22 H          57.0336   95.4891   -3.7652 H       1  UNL1        0.1437
     23 H          57.8097   96.9014   -3.2079 H       1  UNL1        0.1437
     24 C          60.8262   86.3597   10.9163 C.3     1  UNL1        0.0262
     25 C          61.3894   87.7131   10.5981 C.3     1  UNL1        0.0942
     26 N          62.4153   88.3299   11.5020 N.am    1  UNL1       -0.3011
     27 C          62.0095   89.3863   12.4864 C.2     1  UNL1        0.2372
     28 O          60.5776   89.8260   12.5671 O.2     1  UNL1       -0.2736
     29 H          63.3551   88.0413   11.4490 H       1  UNL1        0.1497
     30 C          63.0355   90.0031   13.3902 C.3     1  UNL1        0.1348
     31 C          63.1930   89.7350   14.8576 C.3     1  UNL1        0.0267
     32 C          64.3390   90.5626   15.3597 C.3     1  UNL1        0.0192
     33 C          64.8897   91.3421   14.2025 C.3     1  UNL1        0.0726
     34 N          64.0841   90.9964   12.9854 N.3     1  UNL1       -0.2653
     35 C          64.2908   91.5472   11.6055 C.3     1  UNL1        0.0900
@<TRIPOS>BOND
     1    25    24    1
     2    25    26    1
     3    26    27   am
     4    27    28    2
     5    30    27    1
     6    30    31    1
     7    31    32    1
     8    32    33    1
     9    33    34    1
    10    34    35    1
    11    25     1    1
    12     1     2   ar
    13     2     3   ar
    14     3     4   ar
    15     4     7    1
    16     7     8   am
    17     8     9    2
    18     8    10   am
    19    10    11    1
    20    11    12    1
    21    12    15    1
    22    15    16   ar
    23    16    17   ar
    24    17    18   ar
    25    18    19    1
    26    18    20   ar
    27    20    21   ar
    28    12    13    1
    29     4     5   ar
    30     5     6   ar
    31    34    30    1
    32     6     1   ar
    33    13    10    1
    34    21    15   ar
    35    26    29    1
    36     7    14    1
    37    19    22    1
    38    19    23    1
