@<TRIPOS>MOLECULE
*****
 28 31 0 0 0
SMALL
GASTEIGER

@<TRIPOS>ATOM
      1 C          62.1371   88.3967   11.1064 C.ar    1  UNL1        0.0284
      2 C          63.0225   88.4548   12.3158 C.ar    1  UNL1        0.0027
      3 C          63.7087   89.7373   12.6821 C.ar    1  UNL1        0.0339
      4 C          63.5094   90.9619   11.8391 C.ar    1  UNL1        0.1311
      5 N          62.6239   90.9038   10.6297 N.ar    1  UNL1       -0.2035
      6 C          61.9377   89.6213   10.2633 C.ar    1  UNL1        0.2196
      7 F          61.0523   89.5633    9.0539 F       1  UNL1       -0.1835
      8 N          64.1956   92.2445   12.2054 N.pl3   1  UNL1       -0.3144
      9 H          63.6633   93.0504   12.3964 H       1  UNL1        0.1485
     10 C          65.6927   92.2991   12.2808 C.3     1  UNL1        0.1155
     11 C          66.4717   93.0127   11.2160 C.ar    1  UNL1        0.0028
     12 C          66.3049   94.4915   11.0284 C.ar    1  UNL1        0.0182
     13 C          67.0839   95.2051    9.9636 C.ar    1  UNL1        0.1010
     14 N          68.0298   94.4399    9.0862 N.ar    1  UNL1       -0.2165
     15 C          68.1966   92.9610    9.2738 C.ar    1  UNL1        0.2221
     16 F          69.1425   92.1957    8.3965 F       1  UNL1       -0.1832
     17 C          67.4176   92.2475   10.3386 C.ar    1  UNL1        0.0471
     18 C          61.4509   87.1142   10.7401 C.3     1  UNL1        0.0603
     19 C          63.8568   83.0835   14.3118 C.3     1  UNL1        0.0307
     20 C          63.7651   83.3816   12.8446 C.2     1  UNL1        0.0074
     21 C          64.4337   82.4771   11.8522 C.2     1  UNL1        0.2278
     22 N          64.3421   82.7753   10.3850 N.2     1  UNL1       -0.0314
     23 C          63.5818   83.9779    9.9101 C.2     1  UNL1        0.3716
     24 N          63.3206   84.5226    8.5371 N.2     1  UNL1       -0.0311
     25 C          62.4906   85.7637    8.6809 C.2     1  UNL1        0.2319
     26 C          62.2388   85.9862   10.1428 C.2     1  UNL1        0.0328
     27 C          62.9132   84.8825   10.9025 C.2     1  UNL1        0.0704
     28 C          63.0049   84.5843   12.3697 C.3     1  UNL1        0.0598
@<TRIPOS>BOND
     1    19    20    1
     2    20    21    2
     3    21    22    1
     4    22    23    2
     5    23    24    1
     6    24    25    2
     7    25    26    1
     8    26    18    1
     9    18     1    1
    10     1     2   ar
    11     2     3   ar
    12     3     4   ar
    13     4     8    1
    14     8    10    1
    15    10    11    1
    16    11    12   ar
    17    12    13   ar
    18    13    14   ar
    19    14    15   ar
    20    15    16    1
    21    15    17   ar
    22     4     5   ar
    23     5     6   ar
    24     6     7    1
    25    26    27    2
    26    27    28    1
    27    28    20    1
    28    27    23    1
    29     6     1   ar
    30    17    11   ar
    31     8     9    1
@<TRIPOS>MOLECULE
*****
 28 31 0 0 0
SMALL
GASTEIGER

@<TRIPOS>ATOM
      1 C          63.7140   88.3416   15.6640 C.ar    1  UNL1        0.0284
      2 C          64.2911   87.7481   14.4131 C.ar    1  UNL1        0.0027
      3 C          64.4936   86.2654   14.3106 C.ar    1  UNL1        0.0339
      4 C          64.1190   85.3760   15.4590 C.ar    1  UNL1        0.1311
      5 N          63.5419   85.9696   16.7100 N.ar    1  UNL1       -0.2035
      6 C          63.3394   87.4523   16.8125 C.ar    1  UNL1        0.2196
      7 F          62.7623   88.0457   18.0634 F       1  UNL1       -0.1835
      8 N          64.3216   83.8933   15.3565 N.pl3   1  UNL1       -0.3144
      9 H          65.1917   83.4979   15.5926 H       1  UNL1        0.1485
     10 C          63.1983   83.0131   14.8944 C.3     1  UNL1        0.1155
     11 C          63.2239   82.4273   13.5138 C.ar    1  UNL1        0.0028
     12 C          62.7487   81.0230   13.2860 C.ar    1  UNL1        0.0182
     13 C          62.7743   80.4372   11.9053 C.ar    1  UNL1        0.1010
     14 N          63.2750   81.2557   10.7524 N.ar    1  UNL1       -0.2165
     15 C          63.7503   82.6602   10.9803 C.ar    1  UNL1        0.2221
     16 F          64.2510   83.4787    9.8274 F       1  UNL1       -0.1832
     17 C          63.7247   83.2459   12.3609 C.ar    1  UNL1        0.0471
     18 C          63.5115   89.8243   15.7665 C.3     1  UNL1        0.0603
     19 C          61.9889   89.9970   10.0706 C.3     1  UNL1        0.0307
     20 C          62.9770   90.6433   10.9958 C.2     1  UNL1        0.0074
     21 C          63.9407   91.6648   10.4689 C.2     1  UNL1        0.2278
     22 N          64.9288   92.3111   11.3941 N.2     1  UNL1       -0.0314
     23 C          64.9531   91.9359   12.8462 C.2     1  UNL1        0.3716
     24 N          65.8068   92.4004   13.9887 N.2     1  UNL1       -0.0311
     25 C          65.3707   91.6659   15.2218 C.2     1  UNL1        0.2319
     26 C          64.2474   90.7475   14.8413 C.2     1  UNL1        0.0328
     27 C          63.9894   90.9144   13.3730 C.2     1  UNL1        0.0704
     28 C          63.0013   90.2680   12.4478 C.3     1  UNL1        0.0598
@<TRIPOS>BOND
     1    19    20    1
     2    20    21    2
     3    21    22    1
     4    22    23    2
     5    23    24    1
     6    24    25    2
     7    25    26    1
     8    26    18    1
     9    18     1    1
    10     1     2   ar
    11     2     3   ar
    12     3     4   ar
    13     4     8    1
    14     8    10    1
    15    10    11    1
    16    11    12   ar
    17    12    13   ar
    18    13    14   ar
    19    14    15   ar
    20    15    16    1
    21    15    17   ar
    22     4     5   ar
    23     5     6   ar
    24     6     7    1
    25    26    27    2
    26    27    28    1
    27    28    20    1
    28    27    23    1
    29     6     1   ar
    30    17    11   ar
    31     8     9    1
@<TRIPOS>MOLECULE
*****
 28 31 0 0 0
SMALL
GASTEIGER

@<TRIPOS>ATOM
      1 C          63.6625   86.5055   15.8540 C.ar    1  UNL1        0.0284
      2 C          64.2765   87.2136   14.6829 C.ar    1  UNL1        0.0027
      3 C          64.2343   88.7110   14.6055 C.ar    1  UNL1        0.0339
      4 C          63.5781   89.5004   15.6993 C.ar    1  UNL1        0.1311
      5 N          62.9640   88.7921   16.8705 N.ar    1  UNL1       -0.2035
      6 C          63.0062   87.2947   16.9478 C.ar    1  UNL1        0.2196
      7 F          62.3922   86.5867   18.1189 F       1  UNL1       -0.1835
      8 N          63.5359   90.9978   15.6220 N.pl3   1  UNL1       -0.3144
      9 H          62.8035   91.4453   15.1398 H       1  UNL1        0.1485
     10 C          64.6096   91.8132   16.2793 C.3     1  UNL1        0.1155
     11 C          65.8761   92.1230   15.5376 C.ar    1  UNL1        0.0028
     12 C          66.0175   91.7286   14.0974 C.ar    1  UNL1        0.0182
     13 C          67.2839   92.0383   13.3557 C.ar    1  UNL1        0.1010
     14 N          68.4091   92.7425   14.0543 N.ar    1  UNL1       -0.2165
     15 C          68.2678   93.1369   15.4947 C.ar    1  UNL1        0.2221
     16 F          69.3930   93.8411   16.1933 F       1  UNL1       -0.1832
     17 C          67.0013   92.8271   16.2362 C.ar    1  UNL1        0.0471
     18 C          63.7046   85.0081   15.9313 C.3     1  UNL1        0.0603
     19 C          60.2384   80.5326   14.2739 C.3     1  UNL1        0.0307
     20 C          61.5065   81.2021   13.8339 C.2     1  UNL1        0.0074
     21 C          62.2374   80.7023   12.6231 C.2     1  UNL1        0.2278
     22 N          63.5055   81.3718   12.1831 N.2     1  UNL1       -0.0314
     23 C          64.0429   82.5410   12.9540 C.2     1  UNL1        0.3716
     24 N          65.2601   83.3962   12.7615 N.2     1  UNL1       -0.0311
     25 C          65.2815   84.4244   13.8534 C.2     1  UNL1        0.2319
     26 C          64.0776   84.2048   14.7207 C.2     1  UNL1        0.0328
     27 C          63.3120   83.0407   14.1648 C.2     1  UNL1        0.0704
     28 C          62.0439   82.3712   14.6048 C.3     1  UNL1        0.0598
@<TRIPOS>BOND
     1    19    20    1
     2    20    21    2
     3    21    22    1
     4    22    23    2
     5    23    24    1
     6    24    25    2
     7    25    26    1
     8    26    18    1
     9    18     1    1
    10     1     2   ar
    11     2     3   ar
    12     3     4   ar
    13     4     8    1
    14     8    10    1
    15    10    11    1
    16    11    12   ar
    17    12    13   ar
    18    13    14   ar
    19    14    15   ar
    20    15    16    1
    21    15    17   ar
    22     4     5   ar
    23     5     6   ar
    24     6     7    1
    25    26    27    2
    26    27    28    1
    27    28    20    1
    28    27    23    1
    29     6     1   ar
    30    17    11   ar
    31     8     9    1
@<TRIPOS>MOLECULE
*****
 28 31 0 0 0
SMALL
GASTEIGER

@<TRIPOS>ATOM
      1 C          63.7911   87.8282   15.6097 C.ar    1  UNL1        0.0284
      2 C          64.3347   87.1616   14.3809 C.ar    1  UNL1        0.0027
      3 C          64.3847   85.6647   14.2994 C.ar    1  UNL1        0.0339
      4 C          63.8911   84.8342   15.4469 C.ar    1  UNL1        0.1311
      5 N          63.3474   85.5008   16.6758 N.ar    1  UNL1       -0.2035
      6 C          63.2974   86.9978   16.7573 C.ar    1  UNL1        0.2196
      7 F          62.7538   87.6643   17.9862 F       1  UNL1       -0.1835
      8 N          63.9411   83.3373   15.3655 N.pl3   1  UNL1       -0.3144
      9 H          64.6990   82.8479   15.7597 H       1  UNL1        0.1485
     10 C          62.8364   82.5860   14.6835 C.3     1  UNL1        0.1155
     11 C          63.0152   82.1053   13.2739 C.ar    1  UNL1        0.0028
     12 C          62.5941   80.7162   12.8959 C.ar    1  UNL1        0.0182
     13 C          62.7729   80.2356   11.4863 C.ar    1  UNL1        0.1010
     14 N          63.3729   81.1442   10.4545 N.ar    1  UNL1       -0.2165
     15 C          63.7940   82.5334   10.8325 C.ar    1  UNL1        0.2221
     16 F          64.3939   83.4420    9.8007 F       1  UNL1       -0.1832
     17 C          63.6151   83.0139   12.2421 C.ar    1  UNL1        0.0471
     18 C          63.7410   89.3251   15.6911 C.3     1  UNL1        0.0603
     19 C          68.5263   92.7221   15.0965 C.3     1  UNL1        0.0307
     20 C          67.2845   92.3758   14.3297 C.2     1  UNL1        0.0074
     21 C          67.0346   92.9963   12.9872 C.2     1  UNL1        0.2278
     22 N          65.7928   92.6499   12.2203 N.2     1  UNL1       -0.0314
     23 C          64.8010   91.6831   12.7959 C.2     1  UNL1        0.3716
     24 N          63.4974   91.1537   12.2761 N.2     1  UNL1       -0.0311
     25 C          62.9416   90.2060   13.2974 C.2     1  UNL1        0.2319
     26 C          63.9018   90.1496   14.4484 C.2     1  UNL1        0.0328
     27 C          65.0510   91.0625   14.1385 C.2     1  UNL1        0.0704
     28 C          66.2927   91.4089   14.9053 C.3     1  UNL1        0.0598
@<TRIPOS>BOND
     1    19    20    1
     2    20    21    2
     3    21    22    1
     4    22    23    2
     5    23    24    1
     6    24    25    2
     7    25    26    1
     8    26    18    1
     9    18     1    1
    10     1     2   ar
    11     2     3   ar
    12     3     4   ar
    13     4     8    1
    14     8    10    1
    15    10    11    1
    16    11    12   ar
    17    12    13   ar
    18    13    14   ar
    19    14    15   ar
    20    15    16    1
    21    15    17   ar
    22     4     5   ar
    23     5     6   ar
    24     6     7    1
    25    26    27    2
    26    27    28    1
    27    28    20    1
    28    27    23    1
    29     6     1   ar
    30    17    11   ar
    31     8     9    1
@<TRIPOS>MOLECULE
*****
 28 31 0 0 0
SMALL
GASTEIGER

@<TRIPOS>ATOM
      1 C          63.3516   88.9788   12.9857 C.ar    1  UNL1        0.0284
      2 C          64.0881   89.0143   14.2919 C.ar    1  UNL1        0.0027
      3 C          64.5337   87.7354   14.9367 C.ar    1  UNL1        0.0339
      4 C          64.2427   86.4209   14.2753 C.ar    1  UNL1        0.1311
      5 N          63.5061   86.3854   12.9690 N.ar    1  UNL1       -0.2035
      6 C          63.0606   87.6644   12.3242 C.ar    1  UNL1        0.2196
      7 F          62.3240   87.6288   11.0180 F       1  UNL1       -0.1835
      8 N          64.6882   85.1420   14.9201 N.pl3   1  UNL1       -0.3144
      9 H          65.6456   84.9803   15.0831 H       1  UNL1        0.1485
     10 C          63.6751   84.1093   15.3166 C.3     1  UNL1        0.1155
     11 C          63.2821   83.0336   14.3479 C.ar    1  UNL1        0.0028
     12 C          64.0763   82.8284   13.0921 C.ar    1  UNL1        0.0182
     13 C          63.6833   81.7528   12.1233 C.ar    1  UNL1        0.1010
     14 N          62.4959   80.8822   12.4104 N.ar    1  UNL1       -0.2165
     15 C          61.7017   81.0874   13.6663 C.ar    1  UNL1        0.2221
     16 F          60.5143   80.2169   13.9533 F       1  UNL1       -0.1832
     17 C          62.0947   82.1631   14.6349 C.ar    1  UNL1        0.0471
     18 C          62.9060   90.2578   12.3408 C.3     1  UNL1        0.0603
     19 C          66.5575   92.5733   16.3530 C.3     1  UNL1        0.0307
     20 C          66.2829   92.6776   14.8820 C.2     1  UNL1        0.0074
     21 C          67.0957   93.6081   14.0315 C.2     1  UNL1        0.2278
     22 N          66.8211   93.7124   12.5605 N.2     1  UNL1       -0.0314
     23 C          65.7338   92.8862   11.9401 C.2     1  UNL1        0.3716
     24 N          65.2371   92.7773   10.5289 N.2     1  UNL1       -0.0311
     25 C          64.1174   91.7794   10.5072 C.2     1  UNL1        0.2319
     26 C          63.9220   91.2716   11.9050 C.2     1  UNL1        0.0328
     27 C          64.9210   91.9556   12.7906 C.2     1  UNL1        0.0704
     28 C          65.1956   91.8513   14.2616 C.3     1  UNL1        0.0598
@<TRIPOS>BOND
     1    19    20    1
     2    20    21    2
     3    21    22    1
     4    22    23    2
     5    23    24    1
     6    24    25    2
     7    25    26    1
     8    26    18    1
     9    18     1    1
    10     1     2   ar
    11     2     3   ar
    12     3     4   ar
    13     4     8    1
    14     8    10    1
    15    10    11    1
    16    11    12   ar
    17    12    13   ar
    18    13    14   ar
    19    14    15   ar
    20    15    16    1
    21    15    17   ar
    22     4     5   ar
    23     5     6   ar
    24     6     7    1
    25    26    27    2
    26    27    28    1
    27    28    20    1
    28    27    23    1
    29     6     1   ar
    30    17    11   ar
    31     8     9    1
@<TRIPOS>MOLECULE
*****
 28 31 0 0 0
SMALL
GASTEIGER

@<TRIPOS>ATOM
      1 C          61.9471   88.0234   11.1705 C.ar    1  UNL1        0.0284
      2 C          62.9917   87.8469   12.2323 C.ar    1  UNL1        0.0027
      3 C          63.5665   89.0463   12.9258 C.ar    1  UNL1        0.0339
      4 C          63.0967   90.4224   12.5574 C.ar    1  UNL1        0.1311
      5 N          62.0520   90.5989   11.4955 N.ar    1  UNL1       -0.2035
      6 C          61.4772   89.3995   10.8020 C.ar    1  UNL1        0.2196
      7 F          60.4326   89.5761    9.7402 F       1  UNL1       -0.1835
      8 N          63.6715   91.6219   13.2508 N.pl3   1  UNL1       -0.3144
      9 H          63.5569   92.5182   12.8602 H       1  UNL1        0.1485
     10 C          64.4209   91.4556   14.5395 C.3     1  UNL1        0.1155
     11 C          65.8539   91.8885   14.6349 C.ar    1  UNL1        0.0028
     12 C          66.3120   92.7139   15.8006 C.ar    1  UNL1        0.0182
     13 C          67.7450   93.1468   15.8960 C.ar    1  UNL1        0.1010
     14 N          68.7200   92.7543   14.8258 N.ar    1  UNL1       -0.2165
     15 C          68.2618   91.9288   13.6601 C.ar    1  UNL1        0.2221
     16 F          69.2368   91.5362   12.5899 F       1  UNL1       -0.1832
     17 C          66.8289   91.4959   13.5647 C.ar    1  UNL1        0.0471
     18 C          61.3723   86.8239   10.4770 C.3     1  UNL1        0.0603
     19 C          63.1700   82.7510   14.3462 C.3     1  UNL1        0.0307
     20 C          63.3396   83.0810   12.8929 C.2     1  UNL1        0.0074
     21 C          64.1941   82.2098   12.0207 C.2     1  UNL1        0.2278
     22 N          64.3637   82.5398   10.5673 N.2     1  UNL1       -0.0314
     23 C          63.6787   83.7409    9.9861 C.2     1  UNL1        0.3716
     24 N          63.6597   84.3125    8.5994 N.2     1  UNL1       -0.0311
     25 C          62.7934   85.5370    8.6145 C.2     1  UNL1        0.2319
     26 C          62.2770   85.7222   10.0105 C.2     1  UNL1        0.0328
     27 C          62.8241   84.6121   10.8582 C.2     1  UNL1        0.0704
     28 C          62.6546   84.2821   12.3116 C.3     1  UNL1        0.0598
@<TRIPOS>BOND
     1    19    20    1
     2    20    21    2
     3    21    22    1
     4    22    23    2
     5    23    24    1
     6    24    25    2
     7    25    26    1
     8    26    18    1
     9    18     1    1
    10     1     2   ar
    11     2     3   ar
    12     3     4   ar
    13     4     8    1
    14     8    10    1
    15    10    11    1
    16    11    12   ar
    17    12    13   ar
    18    13    14   ar
    19    14    15   ar
    20    15    16    1
    21    15    17   ar
    22     4     5   ar
    23     5     6   ar
    24     6     7    1
    25    26    27    2
    26    27    28    1
    27    28    20    1
    28    27    23    1
    29     6     1   ar
    30    17    11   ar
    31     8     9    1
@<TRIPOS>MOLECULE
*****
 28 31 0 0 0
SMALL
GASTEIGER

@<TRIPOS>ATOM
      1 C          63.5276   86.9998   13.0871 C.ar    1  UNL1        0.0284
      2 C          64.2433   87.3083   14.3687 C.ar    1  UNL1        0.0027
      3 C          64.2619   88.7115   14.8984 C.ar    1  UNL1        0.0339
      4 C          63.5648   89.8063   14.1465 C.ar    1  UNL1        0.1311
      5 N          62.8490   89.4978   12.8648 N.ar    1  UNL1       -0.2035
      6 C          62.8304   88.0946   12.3351 C.ar    1  UNL1        0.2196
      7 F          62.1146   87.7862   11.0535 F       1  UNL1       -0.1835
      8 N          63.5834   91.2096   14.6761 N.pl3   1  UNL1       -0.3144
      9 H          62.9088   91.8593   14.3728 H       1  UNL1        0.1485
     10 C          64.6299   91.6229   15.6681 C.3     1  UNL1        0.1155
     11 C          66.0046   91.9950   15.1969 C.ar    1  UNL1        0.0028
     12 C          66.4670   91.5811   13.8313 C.ar    1  UNL1        0.0182
     13 C          67.8416   91.9532   13.3602 C.ar    1  UNL1        0.1010
     14 N          68.7539   92.7391   14.2546 N.ar    1  UNL1       -0.2165
     15 C          68.2914   93.1530   15.6203 C.ar    1  UNL1        0.2221
     16 F          69.2037   93.9389   16.5147 F       1  UNL1       -0.1832
     17 C          66.9168   92.7809   16.0914 C.ar    1  UNL1        0.0471
     18 C          63.5089   85.5966   12.5574 C.3     1  UNL1        0.0603
     19 C          62.9507   80.1744   10.3035 C.3     1  UNL1        0.0307
     20 C          62.8738   80.8567   11.6371 C.2     1  UNL1        0.0074
     21 C          62.5723   80.0594   12.8712 C.2     1  UNL1        0.2278
     22 N          62.4954   80.7417   14.2048 N.2     1  UNL1       -0.0314
     23 C          62.7200   82.2214   14.3043 C.2     1  UNL1        0.3716
     24 N          62.7079   83.1622   15.4725 N.2     1  UNL1       -0.0311
     25 C          63.0020   84.5411   14.9603 C.2     1  UNL1        0.2319
     26 C          63.1958   84.4525   13.4756 C.2     1  UNL1        0.0328
     27 C          63.0215   83.0188   13.0701 C.2     1  UNL1        0.0704
     28 C          63.0984   82.3365   11.7365 C.3     1  UNL1        0.0598
@<TRIPOS>BOND
     1    19    20    1
     2    20    21    2
     3    21    22    1
     4    22    23    2
     5    23    24    1
     6    24    25    2
     7    25    26    1
     8    26    18    1
     9    18     1    1
    10     1     2   ar
    11     2     3   ar
    12     3     4   ar
    13     4     8    1
    14     8    10    1
    15    10    11    1
    16    11    12   ar
    17    12    13   ar
    18    13    14   ar
    19    14    15   ar
    20    15    16    1
    21    15    17   ar
    22     4     5   ar
    23     5     6   ar
    24     6     7    1
    25    26    27    2
    26    27    28    1
    27    28    20    1
    28    27    23    1
    29     6     1   ar
    30    17    11   ar
    31     8     9    1
@<TRIPOS>MOLECULE
*****
 28 31 0 0 0
SMALL
GASTEIGER

@<TRIPOS>ATOM
      1 C          62.1210   89.0859   10.6710 C.ar    1  UNL1        0.0284
      2 C          62.8062   88.2500   11.7110 C.ar    1  UNL1        0.0027
      3 C          62.7882   86.7541   11.6023 C.ar    1  UNL1        0.0339
      4 C          62.0849   86.0940   10.4535 C.ar    1  UNL1        0.1311
      5 N          61.3996   86.9299    9.4135 N.ar    1  UNL1       -0.2035
      6 C          61.4176   88.4259    9.5222 C.ar    1  UNL1        0.2196
      7 F          60.7323   89.2617    8.4821 F       1  UNL1       -0.1835
      8 N          62.0669   84.5980   10.3449 N.pl3   1  UNL1       -0.3144
      9 H          61.3393   84.1486    9.8572 H       1  UNL1        0.1485
     10 C          63.1576   83.7868   10.9792 C.3     1  UNL1        0.1155
     11 C          62.8719   82.9787   12.2102 C.ar    1  UNL1        0.0028
     12 C          62.8138   83.6491   13.5508 C.ar    1  UNL1        0.0182
     13 C          62.5281   82.8410   14.7818 C.ar    1  UNL1        0.1010
     14 N          62.3007   81.3624   14.6722 N.ar    1  UNL1       -0.2165
     15 C          62.3588   80.6919   13.3316 C.ar    1  UNL1        0.2221
     16 F          62.1314   79.2133   13.2220 F       1  UNL1       -0.1832
     17 C          62.6445   81.5001   12.1007 C.ar    1  UNL1        0.0471
     18 C          62.1390   90.5818   10.7797 C.3     1  UNL1        0.0603
     19 C          63.4995   90.2092   16.5069 C.3     1  UNL1        0.0307
     20 C          64.0355   90.8430   15.2575 C.2     1  UNL1        0.0074
     21 C          65.2901   91.6634   15.3114 C.2     1  UNL1        0.2278
     22 N          65.8261   92.2972   14.0620 N.2     1  UNL1       -0.0314
     23 C          65.1074   92.1106   12.7587 C.2     1  UNL1        0.3716
     24 N          65.3948   92.6097   11.3737 N.2     1  UNL1       -0.0311
     25 C          64.3178   92.0978   10.4637 C.2     1  UNL1        0.2319
     26 C          63.3648   91.2823   11.2864 C.2     1  UNL1        0.0328
     27 C          63.8528   91.2903   12.7048 C.2     1  UNL1        0.0704
     28 C          63.3169   90.6565   13.9542 C.3     1  UNL1        0.0598
@<TRIPOS>BOND
     1    19    20    1
     2    20    21    2
     3    21    22    1
     4    22    23    2
     5    23    24    1
     6    24    25    2
     7    25    26    1
     8    26    18    1
     9    18     1    1
    10     1     2   ar
    11     2     3   ar
    12     3     4   ar
    13     4     8    1
    14     8    10    1
    15    10    11    1
    16    11    12   ar
    17    12    13   ar
    18    13    14   ar
    19    14    15   ar
    20    15    16    1
    21    15    17   ar
    22     4     5   ar
    23     5     6   ar
    24     6     7    1
    25    26    27    2
    26    27    28    1
    27    28    20    1
    28    27    23    1
    29     6     1   ar
    30    17    11   ar
    31     8     9    1
@<TRIPOS>MOLECULE
*****
 28 31 0 0 0
SMALL
GASTEIGER

@<TRIPOS>ATOM
      1 C          60.6182   87.4094    9.5118 C.ar    1  UNL1        0.0284
      2 C          59.7564   86.6334    8.5606 C.ar    1  UNL1        0.0027
      3 C          59.0933   87.3305    7.4098 C.ar    1  UNL1        0.0339
      4 C          59.2921   88.8038    7.2102 C.ar    1  UNL1        0.1311
      5 N          60.1541   89.5799    8.1615 N.ar    1  UNL1       -0.2035
      6 C          60.8171   88.8828    9.3123 C.ar    1  UNL1        0.2196
      7 F          61.6789   89.6590   10.2634 F       1  UNL1       -0.1835
      8 N          58.6291   89.5010    6.0594 N.pl3   1  UNL1       -0.3144
      9 H          58.0631   88.9917    5.4353 H       1  UNL1        0.1485
     10 C          58.8285   90.9742    5.8594 C.3     1  UNL1        0.1155
     11 C          59.7834   91.4664    4.8126 C.ar    1  UNL1        0.0028
     12 C          59.3573   92.5377    3.8530 C.ar    1  UNL1        0.0182
     13 C          60.3122   93.0300    2.8061 C.ar    1  UNL1        0.1010
     14 N          61.6932   92.4510    2.7189 N.ar    1  UNL1       -0.2165
     15 C          62.1193   91.3797    3.6786 C.ar    1  UNL1        0.2221
     16 F          63.5003   90.8007    3.5913 F       1  UNL1       -0.1832
     17 C          61.1644   90.8875    4.7253 C.ar    1  UNL1        0.0471
     18 C          61.2813   86.7123   10.6626 C.3     1  UNL1        0.0603
     19 C          62.9775   83.3120   15.1740 C.3     1  UNL1        0.0307
     20 C          63.2095   83.4269   13.6965 C.2     1  UNL1        0.0074
     21 C          64.1231   82.4601   13.0034 C.2     1  UNL1        0.2278
     22 N          64.3551   82.5750   11.5259 N.2     1  UNL1       -0.0314
     23 C          63.6735   83.6567   10.7415 C.2     1  UNL1        0.3716
     24 N          63.7089   84.0150    9.2854 N.2     1  UNL1       -0.0311
     25 C          62.8171   85.2032    9.0786 C.2     1  UNL1        0.2319
     26 C          62.2305   85.5793   10.4069 C.2     1  UNL1        0.0328
     27 C          62.7598   84.6235   11.4347 C.2     1  UNL1        0.0704
     28 C          62.5278   84.5086   12.9122 C.3     1  UNL1        0.0598
@<TRIPOS>BOND
     1    19    20    1
     2    20    21    2
     3    21    22    1
     4    22    23    2
     5    23    24    1
     6    24    25    2
     7    25    26    1
     8    26    18    1
     9    18     1    1
    10     1     2   ar
    11     2     3   ar
    12     3     4   ar
    13     4     8    1
    14     8    10    1
    15    10    11    1
    16    11    12   ar
    17    12    13   ar
    18    13    14   ar
    19    14    15   ar
    20    15    16    1
    21    15    17   ar
    22     4     5   ar
    23     5     6   ar
    24     6     7    1
    25    26    27    2
    26    27    28    1
    27    28    20    1
    28    27    23    1
    29     6     1   ar
    30    17    11   ar
    31     8     9    1
