@<TRIPOS>MOLECULE
*****
 20 21 0 0 0
SMALL
GASTEIGER

@<TRIPOS>ATOM
      1 O          64.4147   83.8023   14.4705 O.2     1  UNL1       -0.2730
      2 C          64.1538   85.2657   14.2701 C.2     1  UNL1        0.2460
      3 N          63.2892   85.7246   13.1334 N.am    1  UNL1       -0.2988
      4 H          63.1179   86.6851   13.0018 H       1  UNL1        0.1498
      5 C          64.7573   86.2703   15.2062 C.3     1  UNL1        0.1983
      6 N          64.0939   87.6003   15.4084 N.ar    1  UNL1       -0.2422
      7 C          64.3955   88.8601   14.6522 C.ar    1  UNL1        0.1039
      8 C          63.5004   89.9424   15.1788 C.ar    1  UNL1        0.1255
      9 N          62.6454   89.3514   16.2604 N.ar    1  UNL1       -0.1607
     10 C          63.0123   87.9039   16.4023 C.ar    1  UNL1        0.4525
     11 N          62.4042   86.9310   17.3685 N.pl3   1  UNL1        0.1196
     12 O          61.3577   85.9638   16.9003 O.2     1  UNL1        0.0446
     13 O          62.8427   86.9251   18.8031 O.co2   1  UNL1       -0.5735
     14 C          62.6856   84.7200   12.1972 C.3     1  UNL1        0.1164
     15 C          62.3903   85.1012   10.7767 C.ar    1  UNL1       -0.0026
     16 C          61.2182   85.9838   10.4652 C.ar    1  UNL1       -0.0026
     17 C          60.9230   86.3650    9.0448 C.ar    1  UNL1       -0.0003
     18 C          61.8000   85.8636    7.9360 C.ar    1  UNL1       -0.0000
     19 C          62.9721   84.9810    8.2475 C.ar    1  UNL1       -0.0003
     20 C          63.2673   84.5998    9.6679 C.ar    1  UNL1       -0.0026
@<TRIPOS>UNITY_ATOM_ATTR
11 1
charge 1
13 1
charge -1
@<TRIPOS>BOND
     1     1     2    2
     2     2     5    1
     3     5     6    1
     4     6     7   ar
     5     7     8   ar
     6     8     9   ar
     7     9    10   ar
     8    10    11    1
     9    11    12    2
    10    11    13    1
    11     2     3   am
    12     3    14    1
    13    14    15    1
    14    15    16   ar
    15    16    17   ar
    16    17    18   ar
    17    18    19   ar
    18    19    20   ar
    19    10     6   ar
    20    20    15   ar
    21     3     4    1
@<TRIPOS>MOLECULE
*****
 20 21 0 0 0
SMALL
GASTEIGER

@<TRIPOS>ATOM
      1 O          63.7773   87.9635   13.1044 O.2     1  UNL1       -0.2730
      2 C          62.7938   88.7789   12.3183 C.2     1  UNL1        0.2460
      3 N          61.9736   88.1317   11.2420 N.am    1  UNL1       -0.2988
      4 H          61.3281   88.6668   10.7261 H       1  UNL1        0.1498
      5 C          62.6305   90.2414   12.6086 C.3     1  UNL1        0.1983
      6 N          63.8332   91.0845   12.9127 N.ar    1  UNL1       -0.2422
      7 C          64.6996   91.7806   11.9053 C.ar    1  UNL1        0.1039
      8 C          65.7826   92.5059   12.6475 C.ar    1  UNL1        0.1255
      9 N          65.5855   92.2581   14.1138 N.ar    1  UNL1       -0.1607
     10 C          64.3808   91.3797   14.2777 C.ar    1  UNL1        0.4525
     11 N          63.8217   90.8835   15.5781 N.pl3   1  UNL1        0.1196
     12 O          63.6862   89.4098   15.8226 O.2     1  UNL1        0.0446
     13 O          63.3982   91.8610   16.6342 O.co2   1  UNL1       -0.5735
     14 C          62.1370   86.6692   10.9517 C.3     1  UNL1        0.1164
     15 C          61.8769   86.1450    9.5705 C.ar    1  UNL1       -0.0026
     16 C          60.5364   86.3516    8.9299 C.ar    1  UNL1       -0.0026
     17 C          60.2764   85.8275    7.5488 C.ar    1  UNL1       -0.0003
     18 C          61.3570   85.0968    6.8081 C.ar    1  UNL1       -0.0000
     19 C          62.6975   84.8902    7.4487 C.ar    1  UNL1       -0.0003
     20 C          62.9575   85.4143    8.8298 C.ar    1  UNL1       -0.0026
@<TRIPOS>UNITY_ATOM_ATTR
11 1
charge 1
13 1
charge -1
@<TRIPOS>BOND
     1     1     2    2
     2     2     5    1
     3     5     6    1
     4     6     7   ar
     5     7     8   ar
     6     8     9   ar
     7     9    10   ar
     8    10    11    1
     9    11    12    2
    10    11    13    1
    11     2     3   am
    12     3    14    1
    13    14    15    1
    14    15    16   ar
    15    16    17   ar
    16    17    18   ar
    17    18    19   ar
    18    19    20   ar
    19    10     6   ar
    20    20    15   ar
    21     3     4    1
@<TRIPOS>MOLECULE
*****
 20 21 0 0 0
SMALL
GASTEIGER

@<TRIPOS>ATOM
      1 O          61.1338   88.6122    9.3828 O.2     1  UNL1       -0.2730
      2 C          61.4734   88.5733   10.8433 C.2     1  UNL1        0.2460
      3 N          61.7376   87.2594   11.5172 N.am    1  UNL1       -0.2988
      4 H          61.9605   87.2339   12.4758 H       1  UNL1        0.1498
      5 C          61.5490   89.8482   11.6300 C.3     1  UNL1        0.1983
      6 N          62.7914   90.6871   11.5811 N.ar    1  UNL1       -0.2422
      7 C          63.3143   91.4193   10.3809 C.ar    1  UNL1        0.1039
      8 C          64.5752   92.1258   10.7818 C.ar    1  UNL1        0.1255
      9 N          64.8317   91.8303   12.2300 N.ar    1  UNL1       -0.1607
     10 C          63.7292   90.9411   12.7239 C.ar    1  UNL1        0.4525
     11 N          63.5892   90.4009   14.1162 N.pl3   1  UNL1        0.1196
     12 O          63.4960   91.3424   15.2801 O.2     1  UNL1        0.0446
     13 O          63.5424   88.9191   14.3446 O.co2   1  UNL1       -0.5735
     14 C          61.6621   85.9845   10.7306 C.3     1  UNL1        0.1164
     15 C          62.5949   84.8527   11.0452 C.ar    1  UNL1       -0.0026
     16 C          62.8246   84.4441   12.4700 C.ar    1  UNL1       -0.0026
     17 C          63.7574   83.3123   12.7846 C.ar    1  UNL1       -0.0003
     18 C          64.4604   82.5891   11.6743 C.ar    1  UNL1       -0.0000
     19 C          64.2307   82.9978   10.2494 C.ar    1  UNL1       -0.0003
     20 C          63.2980   84.1295    9.9349 C.ar    1  UNL1       -0.0026
@<TRIPOS>UNITY_ATOM_ATTR
11 1
charge 1
13 1
charge -1
@<TRIPOS>BOND
     1     1     2    2
     2     2     5    1
     3     5     6    1
     4     6     7   ar
     5     7     8   ar
     6     8     9   ar
     7     9    10   ar
     8    10    11    1
     9    11    12    2
    10    11    13    1
    11     2     3   am
    12     3    14    1
    13    14    15    1
    14    15    16   ar
    15    16    17   ar
    16    17    18   ar
    17    18    19   ar
    18    19    20   ar
    19    10     6   ar
    20    20    15   ar
    21     3     4    1
@<TRIPOS>MOLECULE
*****
 20 21 0 0 0
SMALL
GASTEIGER

@<TRIPOS>ATOM
      1 O          64.7440   82.6942    9.6615 O.2     1  UNL1       -0.2730
      2 C          64.0831   83.3458   10.8399 C.2     1  UNL1        0.2460
      3 N          63.1710   84.5188   10.6344 N.am    1  UNL1       -0.2988
      4 H          62.7372   84.9464   11.4078 H       1  UNL1        0.1498
      5 C          64.3343   82.8244   12.2237 C.3     1  UNL1        0.1983
      6 N          63.2554   82.0786   12.9514 N.ar    1  UNL1       -0.2422
      7 C          62.8971   80.6349   12.7580 C.ar    1  UNL1        0.1039
      8 C          61.7656   80.3096   13.6874 C.ar    1  UNL1        0.1255
      9 N          61.4245   81.5523   14.4553 N.ar    1  UNL1       -0.1607
     10 C          62.3453   82.6455   14.0004 C.ar    1  UNL1        0.4525
     11 N          62.3543   84.0578   14.5057 N.pl3   1  UNL1        0.1196
     12 O          62.3804   84.3262   15.9813 O.2     1  UNL1        0.0446
     13 O          62.3373   85.2018   13.5356 O.co2   1  UNL1       -0.5735
     14 C          62.9198   85.0402    9.2506 C.3     1  UNL1        0.1164
     15 C          61.9516   86.1659    9.0375 C.ar    1  UNL1       -0.0026
     16 C          62.1529   87.4726    9.7460 C.ar    1  UNL1       -0.0026
     17 C          61.1847   88.5982    9.5329 C.ar    1  UNL1       -0.0003
     18 C          60.0152   88.4172    8.6112 C.ar    1  UNL1       -0.0000
     19 C          59.8139   87.1106    7.9027 C.ar    1  UNL1       -0.0003
     20 C          60.7820   85.9849    8.1158 C.ar    1  UNL1       -0.0026
@<TRIPOS>UNITY_ATOM_ATTR
11 1
charge 1
13 1
charge -1
@<TRIPOS>BOND
     1     1     2    2
     2     2     5    1
     3     5     6    1
     4     6     7   ar
     5     7     8   ar
     6     8     9   ar
     7     9    10   ar
     8    10    11    1
     9    11    12    2
    10    11    13    1
    11     2     3   am
    12     3    14    1
    13    14    15    1
    14    15    16   ar
    15    16    17   ar
    16    17    18   ar
    17    18    19   ar
    18    19    20   ar
    19    10     6   ar
    20    20    15   ar
    21     3     4    1
@<TRIPOS>MOLECULE
*****
 20 21 0 0 0
SMALL
GASTEIGER

@<TRIPOS>ATOM
      1 O          62.9333   85.2034    9.4401 O.2     1  UNL1       -0.2730
      2 C          62.4628   85.0397   10.8550 C.2     1  UNL1        0.2460
      3 N          61.7524   86.1668   11.5443 N.am    1  UNL1       -0.2988
      4 H          61.4436   86.0594   12.4729 H       1  UNL1        0.1498
      5 C          62.7026   83.7490   11.5805 C.3     1  UNL1        0.1983
      6 N          63.0296   83.7611   13.0444 N.ar    1  UNL1       -0.2422
      7 C          63.7250   84.8657   13.7834 C.ar    1  UNL1        0.1039
      8 C          63.8437   84.4580   15.2220 C.ar    1  UNL1        0.1255
      9 N          63.2216   83.1013   15.3721 N.ar    1  UNL1       -0.1607
     10 C          62.7185   82.6706   14.0263 C.ar    1  UNL1        0.4525
     11 N          62.0259   81.3766   13.7167 N.pl3   1  UNL1        0.1196
     12 O          62.6396   80.4107   12.7470 O.2     1  UNL1        0.0446
     13 O          60.7195   81.0484   14.3769 O.co2   1  UNL1       -0.5735
     14 C          61.5126   87.4575   10.8188 C.3     1  UNL1        0.1164
     15 C          62.3037   88.6796   11.1806 C.ar    1  UNL1       -0.0026
     16 C          62.3603   89.8433   10.2359 C.ar    1  UNL1       -0.0026
     17 C          63.1514   91.0652   10.5978 C.ar    1  UNL1       -0.0003
     18 C          63.8858   91.1235   11.9044 C.ar    1  UNL1       -0.0000
     19 C          63.8292   89.9598   12.8491 C.ar    1  UNL1       -0.0003
     20 C          63.0381   88.7378   12.4872 C.ar    1  UNL1       -0.0026
@<TRIPOS>UNITY_ATOM_ATTR
11 1
charge 1
13 1
charge -1
@<TRIPOS>BOND
     1     1     2    2
     2     2     5    1
     3     5     6    1
     4     6     7   ar
     5     7     8   ar
     6     8     9   ar
     7     9    10   ar
     8    10    11    1
     9    11    12    2
    10    11    13    1
    11     2     3   am
    12     3    14    1
    13    14    15    1
    14    15    16   ar
    15    16    17   ar
    16    17    18   ar
    17    18    19   ar
    18    19    20   ar
    19    10     6   ar
    20    20    15   ar
    21     3     4    1
@<TRIPOS>MOLECULE
*****
 20 21 0 0 0
SMALL
GASTEIGER

@<TRIPOS>ATOM
      1 O          62.7427   89.6354   10.1947 O.2     1  UNL1       -0.2730
      2 C          62.0432   89.3277   11.4854 C.2     1  UNL1        0.2460
      3 N          61.2011   88.0922   11.6061 N.am    1  UNL1       -0.2988
      4 H          60.7420   87.8902   12.4533 H       1  UNL1        0.1498
      5 C          62.1857   90.2554   12.6555 C.3     1  UNL1        0.1983
      6 N          63.5314   90.8158   13.0086 N.ar    1  UNL1       -0.2422
      7 C          64.4194   91.6149   12.1015 C.ar    1  UNL1        0.1039
      8 C          65.6623   91.9685   12.8632 C.ar    1  UNL1        0.1255
      9 N          65.5425   91.3879   14.2411 N.ar    1  UNL1       -0.1607
     10 C          64.2255   90.6755   14.3310 C.ar    1  UNL1        0.4525
     11 N          63.6957   89.9501   15.5322 N.pl3   1  UNL1        0.1196
     12 O          63.5901   88.4539   15.5187 O.2     1  UNL1        0.0446
     13 O          63.2714   90.7209   16.7472 O.co2   1  UNL1       -0.5735
     14 C          61.0586   87.1644   10.4361 C.3     1  UNL1        0.1164
     15 C          61.9649   85.9762   10.3064 C.ar    1  UNL1       -0.0026
     16 C          62.5831   85.6457    8.9803 C.ar    1  UNL1       -0.0026
     17 C          63.4893   84.4575    8.8506 C.ar    1  UNL1       -0.0003
     18 C          63.7774   83.5998   10.0470 C.ar    1  UNL1       -0.0000
     19 C          63.1592   83.9303   11.3731 C.ar    1  UNL1       -0.0003
     20 C          62.2529   85.1185   11.5028 C.ar    1  UNL1       -0.0026
@<TRIPOS>UNITY_ATOM_ATTR
11 1
charge 1
13 1
charge -1
@<TRIPOS>BOND
     1     1     2    2
     2     2     5    1
     3     5     6    1
     4     6     7   ar
     5     7     8   ar
     6     8     9   ar
     7     9    10   ar
     8    10    11    1
     9    11    12    2
    10    11    13    1
    11     2     3   am
    12     3    14    1
    13    14    15    1
    14    15    16   ar
    15    16    17   ar
    16    17    18   ar
    17    18    19   ar
    18    19    20   ar
    19    10     6   ar
    20    20    15   ar
    21     3     4    1
@<TRIPOS>MOLECULE
*****
 20 21 0 0 0
SMALL
GASTEIGER

@<TRIPOS>ATOM
      1 O          62.7642   87.7663   12.2985 O.2     1  UNL1       -0.2730
      2 C          62.4937   86.8879   11.1131 C.2     1  UNL1        0.2460
      3 N          62.4655   85.3969   11.2753 N.am    1  UNL1       -0.2988
      4 H          62.2880   84.8204   10.4973 H       1  UNL1        0.1498
      5 C          62.2513   87.5004    9.7655 C.3     1  UNL1        0.1983
      6 N          61.0986   87.0346    8.9264 N.ar    1  UNL1       -0.2422
      7 C          59.7093   87.6000    8.9449 C.ar    1  UNL1        0.1039
      8 C          58.8848   86.8364    7.9513 C.ar    1  UNL1        0.1255
      9 N          59.7646   85.7991    7.3187 N.ar    1  UNL1       -0.1607
     10 C          61.1327   85.9217    7.9213 C.ar    1  UNL1        0.4525
     11 N          62.3255   85.0791    7.5790 N.pl3   1  UNL1        0.1196
     12 O          63.2533   84.6169    8.6632 O.2     1  UNL1        0.0446
     13 O          62.5907   84.6987    6.1524 O.co2   1  UNL1       -0.5735
     14 C          62.7079   84.7844   12.6229 C.3     1  UNL1        0.1164
     15 C          62.6111   83.2979   12.7995 C.ar    1  UNL1       -0.0026
     16 C          63.0214   82.3819   11.6848 C.ar    1  UNL1       -0.0026
     17 C          62.9245   80.8955   11.8615 C.ar    1  UNL1       -0.0003
     18 C          62.4174   80.3252   13.1528 C.ar    1  UNL1       -0.0000
     19 C          62.0071   81.2412   14.2675 C.ar    1  UNL1       -0.0003
     20 C          62.1039   82.7276   14.0908 C.ar    1  UNL1       -0.0026
@<TRIPOS>UNITY_ATOM_ATTR
11 1
charge 1
13 1
charge -1
@<TRIPOS>BOND
     1     1     2    2
     2     2     5    1
     3     5     6    1
     4     6     7   ar
     5     7     8   ar
     6     8     9   ar
     7     9    10   ar
     8    10    11    1
     9    11    12    2
    10    11    13    1
    11     2     3   am
    12     3    14    1
    13    14    15    1
    14    15    16   ar
    15    16    17   ar
    16    17    18   ar
    17    18    19   ar
    18    19    20   ar
    19    10     6   ar
    20    20    15   ar
    21     3     4    1
@<TRIPOS>MOLECULE
*****
 20 21 0 0 0
SMALL
GASTEIGER

@<TRIPOS>ATOM
      1 O          63.2736   86.5552   12.9075 O.2     1  UNL1       -0.2730
      2 C          62.8037   85.4414   12.0195 C.2     1  UNL1        0.2460
      3 N          61.6539   85.6638   11.0821 N.am    1  UNL1       -0.2988
      4 H          61.3455   84.9328   10.4993 H       1  UNL1        0.1498
      5 C          63.4835   84.1052   12.0688 C.3     1  UNL1        0.1983
      6 N          62.8890   82.9908   12.8778 N.ar    1  UNL1       -0.2422
      7 C          62.4631   81.6512   12.3542 C.ar    1  UNL1        0.1039
      8 C          61.9269   80.8526   13.5051 C.ar    1  UNL1        0.1255
      9 N          62.0213   81.6988   14.7402 N.ar    1  UNL1       -0.1607
     10 C          62.6159   83.0202   14.3524 C.ar    1  UNL1        0.4525
     11 N          62.8894   84.1692   15.2770 N.pl3   1  UNL1        0.1196
     12 O          64.2969   84.6423   15.4894 O.2     1  UNL1        0.0446
     13 O          61.7554   84.8452   15.9892 O.co2   1  UNL1       -0.5735
     14 C          60.9741   87.0000   11.0328 C.3     1  UNL1        0.1164
     15 C          60.4114   87.5079    9.7384 C.ar    1  UNL1       -0.0026
     16 C          60.4368   88.9765    9.4344 C.ar    1  UNL1       -0.0026
     17 C          59.8741   89.4844    8.1401 C.ar    1  UNL1       -0.0003
     18 C          59.2860   88.5236    7.1497 C.ar    1  UNL1       -0.0000
     19 C          59.2605   87.0549    7.4536 C.ar    1  UNL1       -0.0003
     20 C          59.8232   86.5471    8.7479 C.ar    1  UNL1       -0.0026
@<TRIPOS>UNITY_ATOM_ATTR
11 1
charge 1
13 1
charge -1
@<TRIPOS>BOND
     1     1     2    2
     2     2     5    1
     3     5     6    1
     4     6     7   ar
     5     7     8   ar
     6     8     9   ar
     7     9    10   ar
     8    10    11    1
     9    11    12    2
    10    11    13    1
    11     2     3   am
    12     3    14    1
    13    14    15    1
    14    15    16   ar
    15    16    17   ar
    16    17    18   ar
    17    18    19   ar
    18    19    20   ar
    19    10     6   ar
    20    20    15   ar
    21     3     4    1
@<TRIPOS>MOLECULE
*****
 20 21 0 0 0
SMALL
GASTEIGER

@<TRIPOS>ATOM
      1 O          63.5672   83.6384   13.1067 O.2     1  UNL1       -0.2730
      2 C          63.6311   85.1166   13.3535 C.2     1  UNL1        0.2460
      3 N          62.8444   86.0561   12.4883 N.am    1  UNL1       -0.2988
      4 H          62.8863   87.0262   12.6502 H       1  UNL1        0.1498
      5 C          64.4816   85.6552   14.4654 C.3     1  UNL1        0.1983
      6 N          63.8679   86.5161   15.5295 N.ar    1  UNL1       -0.2422
      7 C          63.2976   86.0365   16.8313 C.ar    1  UNL1        0.1039
      8 C          62.7940   87.2316   17.5850 C.ar    1  UNL1        0.1255
      9 N          63.0531   88.4498   16.7489 N.ar    1  UNL1       -0.1607
     10 C          63.7168   88.0075   15.4786 C.ar    1  UNL1        0.4525
     11 N          64.1528   88.9001   14.3546 N.pl3   1  UNL1        0.1196
     12 O          63.5908   88.7017   12.9781 O.2     1  UNL1        0.0446
     13 O          65.1509   89.9911   14.6071 O.co2   1  UNL1       -0.5735
     14 C          61.9939   85.5174   11.3764 C.3     1  UNL1        0.1164
     15 C          61.2994   86.4603   10.4389 C.ar    1  UNL1       -0.0026
     16 C          60.9976   87.8637   10.8740 C.ar    1  UNL1       -0.0026
     17 C          60.3032   88.8065    9.9365 C.ar    1  UNL1       -0.0003
     18 C          59.9107   88.3460    8.5640 C.ar    1  UNL1       -0.0000
     19 C          60.2125   86.9426    8.1290 C.ar    1  UNL1       -0.0003
     20 C          60.9069   85.9997    9.0664 C.ar    1  UNL1       -0.0026
@<TRIPOS>UNITY_ATOM_ATTR
11 1
charge 1
13 1
charge -1
@<TRIPOS>BOND
     1     1     2    2
     2     2     5    1
     3     5     6    1
     4     6     7   ar
     5     7     8   ar
     6     8     9   ar
     7     9    10   ar
     8    10    11    1
     9    11    12    2
    10    11    13    1
    11     2     3   am
    12     3    14    1
    13    14    15    1
    14    15    16   ar
    15    16    17   ar
    16    17    18   ar
    17    18    19   ar
    18    19    20   ar
    19    10     6   ar
    20    20    15   ar
    21     3     4    1
