@<TRIPOS>MOLECULE
*****
 21 24 0 0 0
SMALL
GASTEIGER

@<TRIPOS>ATOM
      1 C          61.5281   87.2863    9.5564 C.3     1  UNL1        0.0489
      2 C          60.4758   86.7057    8.6589 C.3     1  UNL1        0.0236
      3 C          59.3398   86.4246    7.7206 C.3     1  UNL1        0.0690
      4 N          58.7196   87.7355    7.3376 N.3     1  UNL1       -0.2974
      5 C          59.4723   88.8269    8.0393 C.3     1  UNL1        0.0690
      6 C          60.5577   88.1905    8.8559 C.3     1  UNL1        0.0236
      7 H          57.7404   87.7516    7.6229 H       1  UNL1        0.1232
      8 CL         64.2800   82.2565   11.3250 Cl      1  UNL1       -0.0814
      9 C          63.5920   83.5139   10.8829 C.ar    1  UNL1        0.0682
     10 C          63.6822   83.9548    9.4520 C.ar    1  UNL1        0.0119
     11 C          62.9942   85.2123    9.0098 C.ar    1  UNL1       -0.0033
     12 C          62.2161   86.0289    9.9985 C.ar    1  UNL1       -0.0195
     13 C          62.1259   85.5880   11.4294 C.ar    1  UNL1        0.0080
     14 C          62.8139   84.3305   11.8716 C.ar    1  UNL1        0.0679
     15 CL         62.7237   83.8897   13.3026 Cl      1  UNL1       -0.0814
     16 C          62.3415   88.3037   10.3003 C.3     1  UNL1        0.1461
     17 O          61.8306   88.8753   11.5895 O.3     1  UNL1       -0.3534
     18 C          62.6495   89.8838   12.3395 C.3     1  UNL1        0.1421
     19 C          63.6118   89.4313   13.3973 C.3     1  UNL1        0.0297
     20 C          64.2424   88.3274   14.1934 C.3     1  UNL1        0.0026
     21 C          64.6482   89.7515   14.4335 C.3     1  UNL1        0.0026
@<TRIPOS>BOND
     1     8     9    1
     2     9    10   ar
     3    10    11   ar
     4    11    12   ar
     5    12     1    1
     6     1    16    1
     7    16    17    1
     8    17    18    1
     9    18    19    1
    10    19    20    1
    11    20    21    1
    12     1     2    1
    13     2     3    1
    14     3     4    1
    15     4     5    1
    16     6     5    1
    17    12    13   ar
    18    13    14   ar
    19    14    15    1
    20    14     9   ar
    21     6     1    1
    22    21    19    1
    23     6     2    1
    24     4     7    1
@<TRIPOS>MOLECULE
*****
 21 24 0 0 0
SMALL
GASTEIGER

@<TRIPOS>ATOM
      1 C          61.5282   87.0927    9.5799 C.3     1  UNL1        0.0489
      2 C          60.5146   86.5027    8.6447 C.3     1  UNL1        0.0236
      3 C          59.4134   86.2111    7.6689 C.3     1  UNL1        0.0690
      4 N          58.7825   87.5148    7.2787 N.3     1  UNL1       -0.2974
      5 C          59.4939   88.6122    8.0134 C.3     1  UNL1        0.0690
      6 C          60.5644   87.9867    8.8577 C.3     1  UNL1        0.0236
      7 H          57.7948   87.5113    7.5333 H       1  UNL1        0.1232
      8 CL         64.3114   82.0941   11.3878 Cl      1  UNL1       -0.0814
      9 C          63.6156   83.3438   10.9359 C.ar    1  UNL1        0.0682
     10 C          63.7405   83.7986    9.5120 C.ar    1  UNL1        0.0119
     11 C          63.0447   85.0482    9.0600 C.ar    1  UNL1       -0.0033
     12 C          62.2240   85.8430   10.0319 C.ar    1  UNL1       -0.0195
     13 C          62.0991   85.3882   11.4558 C.ar    1  UNL1        0.0080
     14 C          62.7949   84.1386   11.9078 C.ar    1  UNL1        0.0679
     15 CL         62.6699   83.6838   13.3317 Cl      1  UNL1       -0.0814
     16 C          62.3002   88.1166   10.3581 C.3     1  UNL1        0.1461
     17 O          62.3474   89.5392    9.8849 O.3     1  UNL1       -0.3534
     18 C          61.7200   90.6248   10.7084 C.3     1  UNL1        0.1421
     19 C          60.3767   90.4063   11.3391 C.3     1  UNL1        0.0297
     20 C          58.9774   90.8737   11.6103 C.3     1  UNL1        0.0026
     21 C          59.4494   89.5604   12.1606 C.3     1  UNL1        0.0026
@<TRIPOS>BOND
     1     8     9    1
     2     9    10   ar
     3    10    11   ar
     4    11    12   ar
     5    12     1    1
     6     1    16    1
     7    16    17    1
     8    17    18    1
     9    18    19    1
    10    19    20    1
    11    20    21    1
    12     1     2    1
    13     2     3    1
    14     3     4    1
    15     4     5    1
    16     6     5    1
    17    12    13   ar
    18    13    14   ar
    19    14    15    1
    20    14     9   ar
    21     6     1    1
    22    21    19    1
    23     6     2    1
    24     4     7    1
@<TRIPOS>MOLECULE
*****
 21 24 0 0 0
SMALL
GASTEIGER

@<TRIPOS>ATOM
      1 C          64.4711   90.6305   13.7938 C.3     1  UNL1        0.0489
      2 C          65.8170   90.9990   14.3440 C.3     1  UNL1        0.0236
      3 C          67.1650   91.5762   14.6602 C.3     1  UNL1        0.0690
      4 N          67.4561   92.6514   13.6557 N.3     1  UNL1       -0.2974
      5 C          66.2880   92.7388   12.7186 C.3     1  UNL1        0.0690
      6 C          65.2750   91.7175   13.1440 C.3     1  UNL1        0.0236
      7 H          68.3013   92.4185   13.1344 H       1  UNL1        0.1232
      8 CL         62.9407   86.2681   17.6183 Cl      1  UNL1       -0.0814
      9 C          63.3233   87.3587   16.6622 C.ar    1  UNL1        0.0682
     10 C          62.9798   88.7849   16.9749 C.ar    1  UNL1        0.0119
     11 C          63.3624   89.8755   16.0188 C.ar    1  UNL1       -0.0033
     12 C          64.0885   89.5399   14.7499 C.ar    1  UNL1       -0.0195
     13 C          64.4321   88.1137   14.4372 C.ar    1  UNL1        0.0080
     14 C          64.0495   87.0231   15.3934 C.ar    1  UNL1        0.0679
     15 CL         64.3931   85.5968   15.0806 Cl      1  UNL1       -0.0814
     16 C          63.2581   90.6408   12.9114 C.3     1  UNL1        0.1461
     17 O          62.4919   89.3732   12.6750 O.3     1  UNL1       -0.3534
     18 C          62.5310   88.7132   11.3285 C.3     1  UNL1        0.1421
     19 C          62.1993   87.2563   11.1974 C.3     1  UNL1        0.0297
     20 C          62.4003   85.8342   11.6303 C.3     1  UNL1        0.0026
     21 C          61.4239   86.1547   10.5376 C.3     1  UNL1        0.0026
@<TRIPOS>BOND
     1     8     9    1
     2     9    10   ar
     3    10    11   ar
     4    11    12   ar
     5    12     1    1
     6     1    16    1
     7    16    17    1
     8    17    18    1
     9    18    19    1
    10    19    20    1
    11    20    21    1
    12     1     2    1
    13     2     3    1
    14     3     4    1
    15     4     5    1
    16     6     5    1
    17    12    13   ar
    18    13    14   ar
    19    14    15    1
    20    14     9   ar
    21     6     1    1
    22    21    19    1
    23     6     2    1
    24     4     7    1
@<TRIPOS>MOLECULE
*****
 21 24 0 0 0
SMALL
GASTEIGER

@<TRIPOS>ATOM
      1 C          61.5435   87.5934    9.8206 C.3     1  UNL1        0.0489
      2 C          60.5777   88.4072    9.0112 C.3     1  UNL1        0.0236
      3 C          59.5124   88.9414    8.1003 C.3     1  UNL1        0.0690
      4 N          58.8341   87.7746    7.4459 N.3     1  UNL1       -0.2974
      5 C          59.4802   86.5191    7.9523 C.3     1  UNL1        0.0690
      6 C          60.5579   86.9101    8.9197 C.3     1  UNL1        0.0236
      7 H          58.9416   87.8351    6.4334 H       1  UNL1        0.1232
      8 CL         64.5012   91.9871   12.6398 Cl      1  UNL1       -0.0814
      9 C          63.7617   90.8887   11.9350 C.ar    1  UNL1        0.0682
     10 C          63.2569   91.1004   10.5385 C.ar    1  UNL1        0.0119
     11 C          62.5175   90.0020    9.8337 C.ar    1  UNL1       -0.0033
     12 C          62.2829   88.6918   10.5254 C.ar    1  UNL1       -0.0195
     13 C          62.7877   88.4801   11.9219 C.ar    1  UNL1        0.0080
     14 C          63.5271   89.5785   12.6267 C.ar    1  UNL1        0.0679
     15 CL         64.0319   89.3668   14.0233 Cl      1  UNL1       -0.0814
     16 C          62.2523   86.3982   10.3853 C.3     1  UNL1        0.1461
     17 O          61.6821   85.6793   11.5718 O.3     1  UNL1       -0.3534
     18 C          62.4971   84.6388   12.2813 C.3     1  UNL1        0.1421
     19 C          63.4120   83.7422   11.5009 C.3     1  UNL1        0.0297
     20 C          63.9594   83.2721   10.1859 C.3     1  UNL1        0.0026
     21 C          64.4495   82.6593   11.4644 C.3     1  UNL1        0.0026
@<TRIPOS>BOND
     1     8     9    1
     2     9    10   ar
     3    10    11   ar
     4    11    12   ar
     5    12     1    1
     6     1    16    1
     7    16    17    1
     8    17    18    1
     9    18    19    1
    10    19    20    1
    11    20    21    1
    12     1     2    1
    13     2     3    1
    14     3     4    1
    15     4     5    1
    16     6     5    1
    17    12    13   ar
    18    13    14   ar
    19    14    15    1
    20    14     9   ar
    21     6     1    1
    22    21    19    1
    23     6     2    1
    24     4     7    1
@<TRIPOS>MOLECULE
*****
 21 24 0 0 0
SMALL
GASTEIGER

@<TRIPOS>ATOM
      1 C          61.5138   87.3850    9.7961 C.3     1  UNL1        0.0489
      2 C          60.4590   86.7038    8.9755 C.3     1  UNL1        0.0236
      3 C          59.3420   86.3128    8.0538 C.3     1  UNL1        0.0690
      4 N          58.8242   87.5587    7.3984 N.3     1  UNL1       -0.2974
      5 C          59.6212   88.7198    7.9151 C.3     1  UNL1        0.0690
      6 C          60.6315   88.1914    8.8898 C.3     1  UNL1        0.0236
      7 H          57.8385   87.6862    7.6274 H       1  UNL1        0.1232
      8 CL         63.8607   82.6411   12.6222 Cl      1  UNL1       -0.0814
      9 C          63.2740   83.8271   11.9157 C.ar    1  UNL1        0.0682
     10 C          62.5060   84.8569   12.6899 C.ar    1  UNL1        0.0119
     11 C          61.9192   86.0429   11.9833 C.ar    1  UNL1       -0.0033
     12 C          62.1005   86.1991   10.5026 C.ar    1  UNL1       -0.0195
     13 C          62.8686   85.1692    9.7284 C.ar    1  UNL1        0.0080
     14 C          63.4553   83.9832   10.4349 C.ar    1  UNL1        0.0679
     15 CL         64.2234   82.9534    9.6606 Cl      1  UNL1       -0.0814
     16 C          62.3648   88.4782   10.3712 C.3     1  UNL1        0.1461
     17 O          61.7890   89.4225   11.3844 O.3     1  UNL1       -0.3534
     18 C          62.6977   90.3006   12.1928 C.3     1  UNL1        0.1421
     19 C          63.5853   89.6981   13.2411 C.3     1  UNL1        0.0297
     20 C          64.6304   89.8558   14.3055 C.3     1  UNL1        0.0026
     21 C          64.0778   88.4969   13.9925 C.3     1  UNL1        0.0026
@<TRIPOS>BOND
     1     8     9    1
     2     9    10   ar
     3    10    11   ar
     4    11    12   ar
     5    12     1    1
     6     1    16    1
     7    16    17    1
     8    17    18    1
     9    18    19    1
    10    19    20    1
    11    20    21    1
    12     1     2    1
    13     2     3    1
    14     3     4    1
    15     4     5    1
    16     6     5    1
    17    12    13   ar
    18    13    14   ar
    19    14    15    1
    20    14     9   ar
    21     6     1    1
    22    21    19    1
    23     6     2    1
    24     4     7    1
@<TRIPOS>MOLECULE
*****
 21 24 0 0 0
SMALL
GASTEIGER

@<TRIPOS>ATOM
      1 C          62.8130   84.9057   11.7453 C.3     1  UNL1        0.0489
      2 C          63.3917   84.3381   10.4832 C.3     1  UNL1        0.0236
      3 C          64.0748   83.5431    9.4101 C.3     1  UNL1        0.0690
      4 N          64.6950   82.3369   10.0506 N.3     1  UNL1       -0.2974
      5 C          64.3953   82.3864   11.5196 C.3     1  UNL1        0.0690
      6 C          63.5898   83.6232   11.7869 C.3     1  UNL1        0.0236
      7 H          65.7042   82.3469    9.9027 H       1  UNL1        0.1232
      8 CL         60.1939   89.8428    9.5623 Cl      1  UNL1       -0.0814
      9 C          60.8487   88.6085   10.1081 C.ar    1  UNL1        0.0682
     10 C          61.9355   88.7277   11.1349 C.ar    1  UNL1        0.0119
     11 C          62.5903   87.4934   11.6807 C.ar    1  UNL1       -0.0033
     12 C          62.1582   86.1400   11.1996 C.ar    1  UNL1       -0.0195
     13 C          61.0714   86.0208   10.1727 C.ar    1  UNL1        0.0080
     14 C          60.4166   87.2551    9.6270 C.ar    1  UNL1        0.0679
     15 CL         59.3297   87.1359    8.6001 Cl      1  UNL1       -0.0814
     16 C          62.4618   85.0446   13.1970 C.3     1  UNL1        0.1461
     17 O          63.1867   84.2283   14.2255 O.3     1  UNL1       -0.3534
     18 C          62.4360   83.2296   15.0557 C.3     1  UNL1        0.1421
     19 C          62.0073   81.9245   14.4533 C.3     1  UNL1        0.0297
     20 C          62.3525   80.6255   13.7874 C.3     1  UNL1        0.0026
     21 C          60.9196   80.9630   14.0758 C.3     1  UNL1        0.0026
@<TRIPOS>BOND
     1     8     9    1
     2     9    10   ar
     3    10    11   ar
     4    11    12   ar
     5    12     1    1
     6     1    16    1
     7    16    17    1
     8    17    18    1
     9    18    19    1
    10    19    20    1
    11    20    21    1
    12     1     2    1
    13     2     3    1
    14     3     4    1
    15     4     5    1
    16     6     5    1
    17    12    13   ar
    18    13    14   ar
    19    14    15    1
    20    14     9   ar
    21     6     1    1
    22    21    19    1
    23     6     2    1
    24     4     7    1
@<TRIPOS>MOLECULE
*****
 21 24 0 0 0
SMALL
GASTEIGER

@<TRIPOS>ATOM
      1 C          62.4453   87.3332   11.0249 C.3     1  UNL1        0.0489
      2 C          62.5405   88.7414   10.5172 C.3     1  UNL1        0.0236
      3 C          62.7025   90.2179   10.3081 C.3     1  UNL1        0.0690
      4 N          63.0420   90.8388   11.6306 N.3     1  UNL1       -0.2974
      5 C          63.0899   89.7461   12.6571 C.3     1  UNL1        0.0690
      6 C          62.7799   88.4498   11.9689 C.3     1  UNL1        0.0236
      7 H          62.3289   91.5222   11.8855 H       1  UNL1        0.1232
      8 CL         61.0737   84.4787    5.9288 Cl      1  UNL1       -0.0814
      9 C          61.4166   85.1923    7.2028 C.ar    1  UNL1        0.0682
     10 C          62.7702   85.0109    7.8231 C.ar    1  UNL1        0.0119
     11 C          63.1131   85.7245    9.0972 C.ar    1  UNL1       -0.0033
     12 C          62.1024   86.6195    9.7509 C.ar    1  UNL1       -0.0195
     13 C          60.7488   86.8009    9.1306 C.ar    1  UNL1        0.0080
     14 C          60.4059   86.0873    7.8565 C.ar    1  UNL1        0.0679
     15 CL         59.0522   86.2687    7.2362 Cl      1  UNL1       -0.0814
     16 C          62.4692   86.1728   11.9751 C.3     1  UNL1        0.1461
     17 O          63.4180   86.1742   13.1369 O.3     1  UNL1       -0.3534
     18 C          63.9515   84.8780   13.6712 C.3     1  UNL1        0.1421
     19 C          64.1711   83.7187   12.7451 C.3     1  UNL1        0.0297
     20 C          64.4067   83.1873   11.3623 C.3     1  UNL1        0.0026
     21 C          64.3158   82.2422   12.5237 C.3     1  UNL1        0.0026
@<TRIPOS>BOND
     1     8     9    1
     2     9    10   ar
     3    10    11   ar
     4    11    12   ar
     5    12     1    1
     6     1    16    1
     7    16    17    1
     8    17    18    1
     9    18    19    1
    10    19    20    1
    11    20    21    1
    12     1     2    1
    13     2     3    1
    14     3     4    1
    15     4     5    1
    16     6     5    1
    17    12    13   ar
    18    13    14   ar
    19    14    15    1
    20    14     9   ar
    21     6     1    1
    22    21    19    1
    23     6     2    1
    24     4     7    1
@<TRIPOS>MOLECULE
*****
 21 24 0 0 0
SMALL
GASTEIGER

@<TRIPOS>ATOM
      1 C          62.9231   84.7499   12.6689 C.3     1  UNL1        0.0489
      2 C          62.5631   83.3123   12.9009 C.3     1  UNL1        0.0236
      3 C          62.2547   81.9447   13.4342 C.3     1  UNL1        0.0690
      4 N          62.4258   81.9786   14.9240 N.3     1  UNL1       -0.2974
      5 C          62.8401   83.3673   15.3115 C.3     1  UNL1        0.0690
      6 C          62.9250   84.1916   14.0611 C.3     1  UNL1        0.0236
      7 H          63.1447   81.3118   15.2051 H       1  UNL1        0.1232
      8 CL         62.3461   85.0187    6.7028 Cl      1  UNL1       -0.0814
      9 C          62.4904   84.9515    8.1943 C.ar    1  UNL1        0.0682
     10 C          63.5400   84.0727    8.8075 C.ar    1  UNL1        0.0119
     11 C          63.6842   84.0055   10.2990 C.ar    1  UNL1       -0.0033
     12 C          62.7789   84.8171   11.1774 C.ar    1  UNL1       -0.0195
     13 C          61.7293   85.6959   10.5642 C.ar    1  UNL1        0.0080
     14 C          61.5850   85.7631    9.0727 C.ar    1  UNL1        0.0679
     15 CL         60.5354   86.6420    8.4595 Cl      1  UNL1       -0.0814
     16 C          63.3332   86.1641   12.9549 C.3     1  UNL1        0.1461
     17 O          63.8159   86.5428   14.3237 O.3     1  UNL1       -0.3534
     18 C          64.3988   87.9040   14.5635 C.3     1  UNL1        0.1421
     19 C          63.7863   88.8123   15.5880 C.3     1  UNL1        0.0297
     20 C          63.0463   89.0025   16.8788 C.3     1  UNL1        0.0026
     21 C          63.4655   90.1955   16.0718 C.3     1  UNL1        0.0026
@<TRIPOS>BOND
     1     8     9    1
     2     9    10   ar
     3    10    11   ar
     4    11    12   ar
     5    12     1    1
     6     1    16    1
     7    16    17    1
     8    17    18    1
     9    18    19    1
    10    19    20    1
    11    20    21    1
    12     1     2    1
    13     2     3    1
    14     3     4    1
    15     4     5    1
    16     6     5    1
    17    12    13   ar
    18    13    14   ar
    19    14    15    1
    20    14     9   ar
    21     6     1    1
    22    21    19    1
    23     6     2    1
    24     4     7    1
@<TRIPOS>MOLECULE
*****
 21 24 0 0 0
SMALL
GASTEIGER

@<TRIPOS>ATOM
      1 C          62.9334   85.3070   12.4730 C.3     1  UNL1        0.0489
      2 C          62.0043   85.5371   11.3181 C.3     1  UNL1        0.0236
      3 C          61.1629   86.0667   10.1948 C.3     1  UNL1        0.0690
      4 N          61.3886   87.5468   10.1045 N.3     1  UNL1       -0.2974
      5 C          62.3695   87.9321   11.1720 C.3     1  UNL1        0.0690
      6 C          62.7500   86.6900   11.9221 C.3     1  UNL1        0.0236
      7 H          60.5079   88.0407   10.2491 H       1  UNL1        0.1232
      8 CL         62.3000   79.3795   13.1545 Cl      1  UNL1       -0.0814
      9 C          62.4584   80.8614   12.9841 C.ar    1  UNL1        0.0682
     10 C          62.2235   81.7794   14.1469 C.ar    1  UNL1        0.0119
     11 C          62.3818   83.2612   13.9765 C.ar    1  UNL1       -0.0033
     12 C          62.7751   83.8251   12.6434 C.ar    1  UNL1       -0.0195
     13 C          63.0100   82.9071   11.4806 C.ar    1  UNL1        0.0080
     14 C          62.8516   81.4253   11.6510 C.ar    1  UNL1        0.0679
     15 CL         63.0865   80.5073   10.4881 Cl      1  UNL1       -0.0814
     16 C          63.9175   85.5915   13.5687 C.3     1  UNL1        0.1461
     17 O          63.6044   86.6269   14.6078 O.3     1  UNL1       -0.3534
     18 C          64.5887   87.7214   14.8964 C.3     1  UNL1        0.1421
     19 C          64.3119   89.1206   14.4321 C.3     1  UNL1        0.0297
     20 C          64.7950   90.5075   14.1268 C.3     1  UNL1        0.0026
     21 C          63.3493   90.1573   13.9333 C.3     1  UNL1        0.0026
@<TRIPOS>BOND
     1     8     9    1
     2     9    10   ar
     3    10    11   ar
     4    11    12   ar
     5    12     1    1
     6     1    16    1
     7    16    17    1
     8    17    18    1
     9    18    19    1
    10    19    20    1
    11    20    21    1
    12     1     2    1
    13     2     3    1
    14     3     4    1
    15     4     5    1
    16     6     5    1
    17    12    13   ar
    18    13    14   ar
    19    14    15    1
    20    14     9   ar
    21     6     1    1
    22    21    19    1
    23     6     2    1
    24     4     7    1
