@<TRIPOS>MOLECULE
*****
 53 59 0 0 0
SMALL
GASTEIGER

@<TRIPOS>ATOM
      1 C          60.7676   88.7301    9.5492 C.2     1  UNL1        0.2201
      2 N          60.0045   89.6579    8.6510 N.2     1  UNL1       -0.0470
      3 C          59.4846   89.1666    7.3326 C.cat   1  UNL1        0.4657
      4 N          59.7278   87.7473    6.9123 N.2     1  UNL1        0.0297
      5 C          60.4909   86.8194    7.8105 C.2     1  UNL1        0.3701
      6 N          60.8828   85.3788    7.6655 N.2     1  UNL1       -0.0340
      7 C          61.6449   84.9799    8.8944 C.2     1  UNL1        0.2322
      8 C          61.7240   86.1739    9.7988 C.2     1  UNL1        0.0456
      9 C          61.0108   87.3108    9.1290 C.3     1  UNL1        0.2120
     10 C          62.7901   89.9225   12.6399 C.ar    1  UNL1        0.0727
     11 C          61.3849   90.0328   13.1529 C.ar    1  UNL1        0.0251
     12 C          60.4563   89.5995   12.0576 C.ar    1  UNL1        0.0827
     13 N          61.2875   89.2215   10.8676 N.ar    1  UNL1       -0.2780
     14 C          62.7299   89.4211   11.2275 C.ar    1  UNL1        0.0870
     15 N          64.5623   91.6602   13.4081 N.am    1  UNL1       -0.2809
     16 C          64.0367   90.2553   13.4050 C.2     1  UNL1        0.2510
     17 O          64.7577   89.1830   14.1670 O.2     1  UNL1       -0.2698
     18 H          64.0891   92.3639   12.9080 H       1  UNL1        0.1552
     19 C          67.1280   92.0654   13.4628 C.ar    1  UNL1       -0.0090
     20 C          68.3746   92.3980   14.2280 C.ar    1  UNL1       -0.0031
     21 C          68.3020   92.6582   15.7035 C.ar    1  UNL1       -0.0006
     22 C          66.9828   92.5857   16.4138 C.ar    1  UNL1       -0.0031
     23 C          65.7363   92.2530   15.6487 C.ar    1  UNL1       -0.0090
     24 C          65.8089   91.9929   14.1733 C.ar    1  UNL1        0.0425
     25 C          66.8111   92.8799   11.0163 C.3     1  UNL1        0.0051
     26 C          67.2006   91.8052   11.9874 C.3     1  UNL1        0.0276
     27 C          64.4172   92.1805   16.3590 C.3     1  UNL1        0.0276
     28 C          63.8458   90.8486   16.7459 C.3     1  UNL1        0.0051
     29 N          58.7215   90.0945    6.4344 N.pl3   1  UNL1       -0.1895
     30 H          57.7496   90.2020    6.5490 H       1  UNL1        0.2524
     31 C          59.4392   90.8586    5.3615 C.ar    1  UNL1        0.1435
     32 C          60.8769   90.5561    5.0592 C.ar    1  UNL1        0.0356
     33 C          61.5946   91.3202    3.9863 C.ar    1  UNL1        0.0174
     34 C          60.8746   92.3868    3.2157 C.ar    1  UNL1        0.0511
     35 C          59.4368   92.6893    3.5180 C.ar    1  UNL1        0.0541
     36 C          58.7191   91.9252    4.5909 C.ar    1  UNL1        0.1684
     37 N          61.5922   93.1510    2.1428 N.pl3   1  UNL1       -0.3074
     38 C          60.8270   94.0690    1.2363 C.3     1  UNL1        0.0913
     39 C          61.5445   94.8332    0.1634 C.3     1  UNL1        0.0305
     40 C          63.0272   94.6793   -0.0030 C.3     1  UNL1        0.0801
     41 C          63.7925   93.7613    0.9035 C.3     1  UNL1        0.0305
     42 C          63.0749   92.9971    1.9764 C.3     1  UNL1        0.0913
     43 C          63.7448   95.4435   -1.0759 C.2     1  UNL1        0.2253
     44 O          64.1927   96.8524   -0.8215 O.2     1  UNL1       -0.2749
     45 N          64.0144   94.7989   -2.4032 N.am    1  UNL1       -0.2767
     46 C          63.5666   93.3902   -2.6577 C.3     1  UNL1        0.1107
     47 C          63.8363   92.7456   -3.9850 C.3     1  UNL1        0.0939
     48 N          64.5538   93.5099   -5.0579 N.3     1  UNL1       -0.2686
     49 C          64.8235   92.8653   -6.3852 C.3     1  UNL1        0.0897
     50 C          65.0016   94.9186   -4.8034 C.3     1  UNL1        0.0939
     51 C          64.7320   95.5632   -3.4761 C.3     1  UNL1        0.1107
     52 O          57.2814   92.2277    4.8931 O.3     1  UNL1       -0.4687
     53 C          56.2724   91.1183    4.9260 C.3     1  UNL1        0.2526
@<TRIPOS>BOND
     1    25    26    1
     2    26    19    1
     3    19    20   ar
     4    20    21   ar
     5    21    22   ar
     6    22    23   ar
     7    23    27    1
     8    27    28    1
     9    23    24   ar
    10    24    15    1
    11    15    16   am
    12    16    17    2
    13    16    10    1
    14    10    11   ar
    15    11    12   ar
    16    12    13   ar
    17    13     1    1
    18     1     2    2
    19     2     3    1
    20     3    29    1
    21    29    31    1
    22    31    32   ar
    23    32    33   ar
    24    33    34   ar
    25    34    37    1
    26    37    38    1
    27    38    39    1
    28    39    40    1
    29    40    43    1
    30    43    44    2
    31    43    45   am
    32    45    46    1
    33    46    47    1
    34    47    48    1
    35    48    49    1
    36    48    50    1
    37    50    51    1
    38    40    41    1
    39    41    42    1
    40    34    35   ar
    41    35    36   ar
    42    36    52    1
    43    52    53    1
    44     3     4    2
    45     4     5    1
    46     5     6    2
    47     6     7    1
    48     7     8    2
    49     8     9    1
    50    13    14   ar
    51    24    19   ar
    52    14    10   ar
    53     9     1    1
    54    36    31   ar
    55     9     5    1
    56    42    37    1
    57    51    45    1
    58    15    18    1
    59    29    30    1
@<TRIPOS>MOLECULE
*****
 53 59 0 0 0
SMALL
GASTEIGER

@<TRIPOS>ATOM
      1 C          60.7792   88.7252    9.5552 C.2     1  UNL1        0.2201
      2 N          60.0081   89.6530    8.6637 N.2     1  UNL1       -0.0470
      3 C          59.4871   89.1650    7.3446 C.cat   1  UNL1        0.4657
      4 N          59.7371   87.7491    6.9168 N.2     1  UNL1        0.0297
      5 C          60.5082   86.8214    7.8082 C.2     1  UNL1        0.3701
      6 N          60.9079   85.3838    7.6551 N.2     1  UNL1       -0.0340
      7 C          61.6760   84.9833    8.8797 C.2     1  UNL1        0.2322
      8 C          61.7510   86.1734    9.7896 C.2     1  UNL1        0.0456
      9 C          61.0293   87.3094    9.1274 C.3     1  UNL1        0.2120
     10 C          62.8043   89.9149   12.6453 C.ar    1  UNL1        0.0727
     11 C          61.4001   90.0137   13.1634 C.ar    1  UNL1        0.0251
     12 C          60.4707   89.5801   12.0689 C.ar    1  UNL1        0.0827
     13 N          61.3003   89.2133   10.8744 N.ar    1  UNL1       -0.2780
     14 C          62.7426   89.4202   11.2306 C.ar    1  UNL1        0.0870
     15 N          64.5743   91.6576   13.4073 N.am    1  UNL1       -0.2809
     16 C          64.0512   90.2517   13.4081 C.2     1  UNL1        0.2510
     17 O          64.7752   89.1825   14.1716 O.2     1  UNL1       -0.2698
     18 H          64.0991   92.3593   12.9062 H       1  UNL1        0.1552
     19 C          65.7495   92.2610   15.6444 C.ar    1  UNL1       -0.0090
     20 C          66.9965   92.5977   16.4071 C.ar    1  UNL1       -0.0031
     21 C          68.3151   92.6677   15.6955 C.ar    1  UNL1       -0.0006
     22 C          68.3867   92.4010   14.2212 C.ar    1  UNL1       -0.0031
     23 C          67.1398   92.0643   13.4585 C.ar    1  UNL1       -0.0090
     24 C          65.8213   91.9943   14.1701 C.ar    1  UNL1        0.0425
     25 C          63.8526   90.8597   16.7343 C.3     1  UNL1        0.0051
     26 C          64.4310   92.1910   16.3560 C.3     1  UNL1        0.0276
     27 C          67.2114   91.7976   11.9841 C.3     1  UNL1        0.0276
     28 C          66.8067   92.8628   11.0087 C.3     1  UNL1        0.0051
     29 N          58.7159   90.0928    6.4531 N.pl3   1  UNL1       -0.1895
     30 H          57.7454   90.2015    6.5775 H       1  UNL1        0.2524
     31 C          59.4236   90.8549    5.3722 C.ar    1  UNL1        0.1435
     32 C          60.8622   90.5607    5.0658 C.ar    1  UNL1        0.0356
     33 C          61.5698   91.3229    3.9848 C.ar    1  UNL1        0.0174
     34 C          60.8388   92.3792    3.2103 C.ar    1  UNL1        0.0511
     35 C          59.4002   92.6733    3.5167 C.ar    1  UNL1        0.0541
     36 C          58.6926   91.9112    4.5977 C.ar    1  UNL1        0.1684
     37 N          61.5464   93.1414    2.1293 N.pl3   1  UNL1       -0.3074
     38 C          60.7642   94.0089    1.1884 C.3     1  UNL1        0.0913
     39 C          61.4716   94.7711    0.1074 C.3     1  UNL1        0.0305
     40 C          62.9613   94.6657   -0.0326 C.3     1  UNL1        0.0801
     41 C          63.7436   93.7982    0.9084 C.3     1  UNL1        0.0305
     42 C          63.0361   93.0359    1.9894 C.3     1  UNL1        0.0913
     43 C          63.6688   95.4279   -1.1136 C.2     1  UNL1        0.2253
     44 O          64.0888   96.8486   -0.8777 O.2     1  UNL1       -0.2749
     45 N          63.9562   94.7696   -2.4304 N.am    1  UNL1       -0.2767
     46 C          63.5363   93.3491   -2.6663 C.3     1  UNL1        0.1107
     47 C          63.8237   92.6908   -3.9830 C.3     1  UNL1        0.0939
     48 N          64.5312   93.4531   -5.0640 N.3     1  UNL1       -0.2686
     49 C          64.8187   92.7947   -6.3808 C.3     1  UNL1        0.0897
     50 C          64.9512   94.8736   -4.8281 C.3     1  UNL1        0.0939
     51 C          64.6637   95.5319   -3.5113 C.3     1  UNL1        0.1107
     52 O          57.2540   92.2054    4.9041 O.3     1  UNL1       -0.4687
     53 C          56.2493   91.0919    4.9279 C.3     1  UNL1        0.2526
@<TRIPOS>BOND
     1    25    26    1
     2    26    19    1
     3    19    20   ar
     4    20    21   ar
     5    21    22   ar
     6    22    23   ar
     7    23    27    1
     8    27    28    1
     9    23    24   ar
    10    24    15    1
    11    15    16   am
    12    16    17    2
    13    16    10    1
    14    10    11   ar
    15    11    12   ar
    16    12    13   ar
    17    13     1    1
    18     1     2    2
    19     2     3    1
    20     3    29    1
    21    29    31    1
    22    31    32   ar
    23    32    33   ar
    24    33    34   ar
    25    34    37    1
    26    37    38    1
    27    38    39    1
    28    39    40    1
    29    40    43    1
    30    43    44    2
    31    43    45   am
    32    45    46    1
    33    46    47    1
    34    47    48    1
    35    48    49    1
    36    48    50    1
    37    50    51    1
    38    40    41    1
    39    41    42    1
    40    34    35   ar
    41    35    36   ar
    42    36    52    1
    43    52    53    1
    44     3     4    2
    45     4     5    1
    46     5     6    2
    47     6     7    1
    48     7     8    2
    49     8     9    1
    50    13    14   ar
    51    24    19   ar
    52    14    10   ar
    53     9     1    1
    54    36    31   ar
    55     9     5    1
    56    42    37    1
    57    51    45    1
    58    15    18    1
    59    29    30    1
@<TRIPOS>MOLECULE
*****
 53 59 0 0 0
SMALL
GASTEIGER

@<TRIPOS>ATOM
      1 C          61.1698   87.4436    9.0874 C.2     1  UNL1        0.2201
      2 N          60.4290   88.6824    8.6792 N.2     1  UNL1       -0.0470
      3 C          59.7233   88.7327    7.3566 C.cat   1  UNL1        0.4657
      4 N          59.7583   87.5442    6.4421 N.2     1  UNL1        0.0297
      5 C          60.4991   86.3054    6.8503 C.2     1  UNL1        0.3701
      6 N          60.7070   84.9882    6.1635 N.2     1  UNL1       -0.0340
      7 C          61.5412   84.1238    7.0617 C.2     1  UNL1        0.2322
      8 C          61.8489   84.9068    8.3036 C.2     1  UNL1        0.0456
      9 C          61.2048   86.2551    8.1729 C.3     1  UNL1        0.2120
     10 C          63.1268   88.0451   12.3849 C.ar    1  UNL1        0.0727
     11 C          62.7965   86.5869   12.5057 C.ar    1  UNL1        0.0251
     12 C          62.0232   86.1842   11.2852 C.ar    1  UNL1        0.0827
     13 N          61.8756   87.3934   10.4100 N.ar    1  UNL1       -0.2780
     14 C          62.5576   88.5435   11.0896 C.ar    1  UNL1        0.0870
     15 N          63.7835   90.3576   13.3705 N.am    1  UNL1       -0.2809
     16 C          63.8919   88.8616   13.3839 C.2     1  UNL1        0.2510
     17 O          64.7655   88.1819   14.3964 O.2     1  UNL1       -0.2698
     18 H          63.2102   90.8037   12.7060 H       1  UNL1        0.1552
     19 C          64.1319   91.1792   15.8105 C.ar    1  UNL1       -0.0090
     20 C          64.8971   91.9956   16.8095 C.ar    1  UNL1       -0.0031
     21 C          66.0789   92.8067   16.3676 C.ar    1  UNL1       -0.0006
     22 C          66.4956   92.8015   14.9267 C.ar    1  UNL1       -0.0031
     23 C          65.7305   91.9851   13.9277 C.ar    1  UNL1       -0.0090
     24 C          64.5487   91.1740   14.3696 C.ar    1  UNL1        0.0425
     25 C          63.1569   89.0190   16.8747 C.3     1  UNL1        0.0051
     26 C          62.9502   90.3681   16.2525 C.3     1  UNL1        0.0276
     27 C          66.1471   91.9799   12.4867 C.3     1  UNL1        0.0276
     28 C          67.5815   92.2208   12.1199 C.3     1  UNL1        0.0051
     29 N          58.9824   89.9716    6.9484 N.pl3   1  UNL1       -0.1895
     30 H          58.2095   90.2790    7.4751 H       1  UNL1        0.2524
     31 C          59.4193   90.7421    5.7378 C.ar    1  UNL1        0.1435
     32 C          60.8381   90.6475    5.2603 C.ar    1  UNL1        0.0356
     33 C          61.2749   91.4180    4.0497 C.ar    1  UNL1        0.0174
     34 C          60.2930   92.2830    3.3166 C.ar    1  UNL1        0.0511
     35 C          58.8742   92.3776    3.7942 C.ar    1  UNL1        0.0541
     36 C          58.4373   91.6071    5.0048 C.ar    1  UNL1        0.1684
     37 N          60.7297   93.0536    2.1060 N.pl3   1  UNL1       -0.3074
     38 C          60.0241   92.8568    0.7970 C.3     1  UNL1        0.0913
     39 C          60.4608   93.6273   -0.4136 C.3     1  UNL1        0.0305
     40 C          61.6031   94.5945   -0.3152 C.3     1  UNL1        0.0801
     41 C          62.3087   94.7912    0.9937 C.3     1  UNL1        0.0305
     42 C          61.8720   94.0207    2.2044 C.3     1  UNL1        0.0913
     43 C          62.0398   95.3650   -1.5259 C.2     1  UNL1        0.2253
     44 O          61.6813   96.8153   -1.6615 O.2     1  UNL1       -0.2749
     45 N          62.8349   94.6852   -2.6009 N.am    1  UNL1       -0.2767
     46 C          63.1934   93.2351   -2.4654 C.3     1  UNL1        0.1107
     47 C          63.9885   92.5553   -3.5404 C.3     1  UNL1        0.0939
     48 N          64.4251   93.3259   -4.7511 N.3     1  UNL1       -0.2686
     49 C          65.2203   92.6462   -5.8261 C.3     1  UNL1        0.0897
     50 C          64.0667   94.7761   -4.8866 C.3     1  UNL1        0.0939
     51 C          63.2715   95.4558   -3.8116 C.3     1  UNL1        0.1107
     52 O          57.0185   91.7017    5.4823 O.3     1  UNL1       -0.4687
     53 C          55.9591   90.8404    4.8612 C.3     1  UNL1        0.2526
@<TRIPOS>BOND
     1    25    26    1
     2    26    19    1
     3    19    20   ar
     4    20    21   ar
     5    21    22   ar
     6    22    23   ar
     7    23    27    1
     8    27    28    1
     9    23    24   ar
    10    24    15    1
    11    15    16   am
    12    16    17    2
    13    16    10    1
    14    10    11   ar
    15    11    12   ar
    16    12    13   ar
    17    13     1    1
    18     1     2    2
    19     2     3    1
    20     3    29    1
    21    29    31    1
    22    31    32   ar
    23    32    33   ar
    24    33    34   ar
    25    34    37    1
    26    37    38    1
    27    38    39    1
    28    39    40    1
    29    40    43    1
    30    43    44    2
    31    43    45   am
    32    45    46    1
    33    46    47    1
    34    47    48    1
    35    48    49    1
    36    48    50    1
    37    50    51    1
    38    40    41    1
    39    41    42    1
    40    34    35   ar
    41    35    36   ar
    42    36    52    1
    43    52    53    1
    44     3     4    2
    45     4     5    1
    46     5     6    2
    47     6     7    1
    48     7     8    2
    49     8     9    1
    50    13    14   ar
    51    24    19   ar
    52    14    10   ar
    53     9     1    1
    54    36    31   ar
    55     9     5    1
    56    42    37    1
    57    51    45    1
    58    15    18    1
    59    29    30    1
