@<TRIPOS>MOLECULE
*****
 39 43 0 0 0
SMALL
GASTEIGER

@<TRIPOS>ATOM
      1 C          63.9423   90.6674   12.9439 C.ar    1  UNL1        0.1517
      2 C          64.4232   91.7631   12.0394 C.ar    1  UNL1        0.0340
      3 C          65.7697   92.3847   12.2646 C.ar    1  UNL1       -0.0170
      4 C          66.6352   91.9108   13.3942 C.ar    1  UNL1       -0.0027
      5 C          66.1543   90.8150   14.2988 C.ar    1  UNL1        0.0174
      6 C          64.8079   90.1934   14.0737 C.ar    1  UNL1        0.0849
      7 C          66.2506   93.4804   11.3600 C.3     1  UNL1        0.0521
      8 C          65.8058   94.8940   11.5922 C.3     1  UNL1        0.0241
      9 C          66.2868   95.9897   10.6876 C.3     1  UNL1        0.0727
     10 N          67.2124   95.6718    9.5509 N.3     1  UNL1       -0.2685
     11 C          67.6572   94.2581    9.3188 C.3     1  UNL1        0.1021
     12 C          67.1763   93.1625   10.2233 C.3     1  UNL1        0.1304
     13 O          67.6210   91.7489    9.9912 O.3     1  UNL1       -0.3827
     14 H          67.2217   91.1704   10.6597 H       1  UNL1        0.2104
     15 C          67.6933   96.7674    8.6464 C.3     1  UNL1        0.1043
     16 C          67.1846   96.8548    7.2380 C.3     1  UNL1        0.1544
     17 O          65.8661   96.2371    6.8772 O.3     1  UNL1       -0.3805
     18 H          65.9247   95.2732    6.9691 H       1  UNL1        0.2105
     19 C          61.8230   90.3614   11.4727 C.3     1  UNL1        0.2525
     20 O          62.5959   90.0457   12.7188 O.3     1  UNL1       -0.4702
     21 N          64.3270   89.0977   14.9782 N.pl3   1  UNL1       -0.2790
     22 H          64.0943   89.2981   15.9136 H       1  UNL1        0.1552
     23 C          64.2006   87.6966   14.4576 C.ar    1  UNL1        0.2383
     24 N          64.9046   86.5708   15.1555 N.ar    1  UNL1       -0.2093
     25 C          64.7782   85.1698   14.6348 C.ar    1  UNL1        0.1209
     26 C          63.9478   84.8945   13.4164 C.ar    1  UNL1        0.1021
     27 C          63.6401   83.6261   12.6771 C.ar    1  UNL1        0.0223
     28 C          62.7458   83.9679   11.5224 C.ar    1  UNL1        0.0208
     29 C          62.5010   85.4476   11.5480 C.ar    1  UNL1        0.0859
     30 N          63.2438   86.0202   12.7185 N.ar    1  UNL1       -0.2255
     31 N          63.3702   87.4213   13.2391 N.ar    1  UNL1       -0.1295
     32 C          61.6607   86.2192   10.5740 C.ar    1  UNL1        0.0517
     33 C          60.5787   87.1299   11.0738 C.ar    1  UNL1        0.0045
     34 C          59.7385   87.9015   10.0999 C.ar    1  UNL1        0.0002
     35 C          59.9802   87.7625    8.6261 C.ar    1  UNL1        0.0031
     36 C          61.0622   86.8518    8.1262 C.ar    1  UNL1        0.0369
     37 C          61.9024   86.0802    9.1002 C.ar    1  UNL1        0.1401
     38 O          62.9844   85.1694    8.6002 O.3     1  UNL1       -0.4714
     39 C          62.8585   84.5246    7.2518 C.3     1  UNL1        0.2525
@<TRIPOS>BOND
     1    19    20    1
     2    20     1    1
     3     1     2   ar
     4     2     3   ar
     5     7     3    1
     6     7     8    1
     7     8     9    1
     8     9    10    1
     9    10    15    1
    10    15    16    1
    11    16    17    1
    12    10    11    1
    13    11    12    1
    14    12    13    1
    15     3     4   ar
    16     4     5   ar
    17     5     6   ar
    18     6    21    1
    19    21    23    1
    20    23    24   ar
    21    24    25   ar
    22    25    26   ar
    23    26    27   ar
    24    27    28   ar
    25    28    29   ar
    26    29    32    1
    27    32    33   ar
    28    33    34   ar
    29    34    35   ar
    30    35    36   ar
    31    36    37   ar
    32    37    38    1
    33    38    39    1
    34    29    30   ar
    35    30    31   ar
    36     6     1   ar
    37    31    23   ar
    38    12     7    1
    39    30    26   ar
    40    37    32   ar
    41    17    18    1
    42    13    14    1
    43    21    22    1
@<TRIPOS>MOLECULE
*****
 39 43 0 0 0
SMALL
GASTEIGER

@<TRIPOS>ATOM
      1 C          63.2941   90.3072   13.4236 C.ar    1  UNL1        0.1517
      2 C          63.8990   91.2843   12.4597 C.ar    1  UNL1        0.0340
      3 C          65.2730   91.8317   12.7097 C.ar    1  UNL1       -0.0170
      4 C          66.0421   91.4019   13.9236 C.ar    1  UNL1       -0.0027
      5 C          65.4372   90.4247   14.8877 C.ar    1  UNL1        0.0174
      6 C          64.0632   89.8773   14.6377 C.ar    1  UNL1        0.0849
      7 C          65.8779   92.8088   11.7457 C.3     1  UNL1        0.0521
      8 C          66.1503   92.3948   10.3299 C.3     1  UNL1        0.0241
      9 C          66.7552   93.3721    9.3660 C.3     1  UNL1        0.0727
     10 N          67.0878   94.7632    9.8178 N.3     1  UNL1       -0.2685
     11 C          66.8154   95.1771   11.2336 C.3     1  UNL1        0.1021
     12 C          66.2105   94.2000   12.1975 C.3     1  UNL1        0.1304
     13 O          65.9381   94.6140   13.6133 O.3     1  UNL1       -0.3827
     14 H          65.5494   93.8695   14.0988 H       1  UNL1        0.2104
     15 C          67.6927   95.7403    8.8539 C.3     1  UNL1        0.1043
     16 C          66.8316   96.7806    8.2009 C.3     1  UNL1        0.1544
     17 O          65.6636   96.3651    7.3563 O.3     1  UNL1       -0.3805
     18 H          65.9842   95.9010    6.5671 H       1  UNL1        0.2105
     19 C          61.3591   89.7480   11.7826 C.3     1  UNL1        0.2525
     20 O          61.9201   89.7598   13.1736 O.3     1  UNL1       -0.4702
     21 N          63.4583   88.9002   15.6016 N.pl3   1  UNL1       -0.2790
     22 H          62.9659   89.2264   16.3893 H       1  UNL1        0.1552
     23 C          63.6036   87.4260   15.3655 C.ar    1  UNL1        0.2383
     24 N          64.0227   86.5243   16.4885 N.ar    1  UNL1       -0.2093
     25 C          64.1679   85.0501   16.2523 C.ar    1  UNL1        0.1209
     26 C          63.8940   84.4777   14.8931 C.ar    1  UNL1        0.1021
     27 C          63.9529   83.0752   14.3642 C.ar    1  UNL1        0.0223
     28 C          63.5702   83.1103   12.9143 C.ar    1  UNL1        0.0208
     29 C          63.2747   84.5343   12.5472 C.ar    1  UNL1        0.0859
     30 N          63.4749   85.3795   13.7701 N.ar    1  UNL1       -0.2255
     31 N          63.3297   86.8536   14.0063 N.ar    1  UNL1       -0.1295
     32 C          62.8532   85.0268   11.1945 C.ar    1  UNL1        0.0517
     33 C          61.8179   86.1060   11.0784 C.ar    1  UNL1        0.0045
     34 C          61.3963   86.5985    9.7257 C.ar    1  UNL1        0.0002
     35 C          62.0100   86.0119    8.4891 C.ar    1  UNL1        0.0031
     36 C          63.0453   84.9327    8.6052 C.ar    1  UNL1        0.0369
     37 C          63.4669   84.4402    9.9579 C.ar    1  UNL1        0.1401
     38 O          64.5022   83.3610   10.0739 O.3     1  UNL1       -0.4714
     39 C          64.0830   81.9216   10.1235 C.3     1  UNL1        0.2525
@<TRIPOS>BOND
     1    19    20    1
     2    20     1    1
     3     1     2   ar
     4     2     3   ar
     5     7     3    1
     6     7     8    1
     7     8     9    1
     8     9    10    1
     9    10    15    1
    10    15    16    1
    11    16    17    1
    12    10    11    1
    13    11    12    1
    14    12    13    1
    15     3     4   ar
    16     4     5   ar
    17     5     6   ar
    18     6    21    1
    19    21    23    1
    20    23    24   ar
    21    24    25   ar
    22    25    26   ar
    23    26    27   ar
    24    27    28   ar
    25    28    29   ar
    26    29    32    1
    27    32    33   ar
    28    33    34   ar
    29    34    35   ar
    30    35    36   ar
    31    36    37   ar
    32    37    38    1
    33    38    39    1
    34    29    30   ar
    35    30    31   ar
    36     6     1   ar
    37    31    23   ar
    38    12     7    1
    39    30    26   ar
    40    37    32   ar
    41    17    18    1
    42    13    14    1
    43    21    22    1
@<TRIPOS>MOLECULE
*****
 39 43 0 0 0
SMALL
GASTEIGER

@<TRIPOS>ATOM
      1 C          61.6234   87.3881   11.1793 C.ar    1  UNL1        0.1517
      2 C          61.6875   85.8908   11.1174 C.ar    1  UNL1        0.0340
      3 C          62.6511   85.1445   11.9918 C.ar    1  UNL1       -0.0170
      4 C          63.5506   85.8956   12.9281 C.ar    1  UNL1       -0.0027
      5 C          63.4866   87.3930   12.9900 C.ar    1  UNL1        0.0174
      6 C          62.5230   88.1393   12.1156 C.ar    1  UNL1        0.0849
      7 C          62.7152   83.6472   11.9299 C.3     1  UNL1        0.0521
      8 C          63.0963   82.9651   10.6495 C.3     1  UNL1        0.0241
      9 C          63.1604   81.4677   10.5877 C.3     1  UNL1        0.0727
     10 N          62.8433   80.6525   11.8062 N.3     1  UNL1       -0.2685
     11 C          62.4622   81.3346   13.0866 C.3     1  UNL1        0.1021
     12 C          62.3981   82.8319   13.1485 C.3     1  UNL1        0.1304
     13 O          62.0170   83.5140   14.4289 O.3     1  UNL1       -0.3827
     14 H          62.0239   84.4751   14.2978 H       1  UNL1        0.2104
     15 C          62.9074   79.1552   11.7443 C.3     1  UNL1        0.1043
     16 C          62.7997   78.4538   10.4228 C.3     1  UNL1        0.1544
     17 O          63.1660   77.0035   10.3113 O.3     1  UNL1       -0.3805
     18 H          64.1161   76.8964   10.4749 H       1  UNL1        0.2105
     19 C          60.2930   87.5886    8.9567 C.3     1  UNL1        0.2525
     20 O          60.6597   88.1343   10.3049 O.3     1  UNL1       -0.4702
     21 N          62.4589   89.6366   12.1775 N.pl3   1  UNL1       -0.2790
     22 H          61.7838   90.1226   11.6509 H       1  UNL1        0.1552
     23 C          63.4234   90.3935   13.0417 C.ar    1  UNL1        0.2383
     24 N          63.3004   90.3313   14.5353 N.ar    1  UNL1       -0.2093
     25 C          64.2649   91.0882   15.3995 C.ar    1  UNL1        0.1209
     26 C          65.3525   91.9073   14.7700 C.ar    1  UNL1        0.1021
     27 C          66.4413   92.7535   15.3605 C.ar    1  UNL1        0.0223
     28 C          67.2372   93.3386   14.2317 C.ar    1  UNL1        0.0208
     29 C          66.6403   92.8541   12.9437 C.ar    1  UNL1        0.0859
     30 N          65.4755   91.9695   13.2763 N.ar    1  UNL1       -0.2255
     31 N          64.5110   91.2126   12.4122 N.ar    1  UNL1       -0.1295
     32 C          67.1234   93.1945   11.5650 C.ar    1  UNL1        0.0517
     33 C          67.8773   92.1763   10.7618 C.ar    1  UNL1        0.0045
     34 C          68.3604   92.5166    9.3831 C.ar    1  UNL1        0.0002
     35 C          68.0897   93.8751    8.8076 C.ar    1  UNL1        0.0031
     36 C          67.3359   94.8932    9.6108 C.ar    1  UNL1        0.0369
     37 C          66.8527   94.5529   10.9894 C.ar    1  UNL1        0.1401
     38 O          66.0989   95.5711   11.7926 O.3     1  UNL1       -0.4714
     39 C          65.6609   96.8557   11.1538 C.3     1  UNL1        0.2525
@<TRIPOS>BOND
     1    19    20    1
     2    20     1    1
     3     1     2   ar
     4     2     3   ar
     5     7     3    1
     6     7     8    1
     7     8     9    1
     8     9    10    1
     9    10    15    1
    10    15    16    1
    11    16    17    1
    12    10    11    1
    13    11    12    1
    14    12    13    1
    15     3     4   ar
    16     4     5   ar
    17     5     6   ar
    18     6    21    1
    19    21    23    1
    20    23    24   ar
    21    24    25   ar
    22    25    26   ar
    23    26    27   ar
    24    27    28   ar
    25    28    29   ar
    26    29    32    1
    27    32    33   ar
    28    33    34   ar
    29    34    35   ar
    30    35    36   ar
    31    36    37   ar
    32    37    38    1
    33    38    39    1
    34    29    30   ar
    35    30    31   ar
    36     6     1   ar
    37    31    23   ar
    38    12     7    1
    39    30    26   ar
    40    37    32   ar
    41    17    18    1
    42    13    14    1
    43    21    22    1
@<TRIPOS>MOLECULE
*****
 39 43 0 0 0
SMALL
GASTEIGER

@<TRIPOS>ATOM
      1 C          62.0810   87.7156   10.7478 C.ar    1  UNL1        0.1517
      2 C          62.0977   86.2161   10.7163 C.ar    1  UNL1        0.0340
      3 C          62.8055   85.4510   11.7950 C.ar    1  UNL1       -0.0170
      4 C          63.4966   86.1855   12.9053 C.ar    1  UNL1       -0.0027
      5 C          63.4800   87.6851   12.9369 C.ar    1  UNL1        0.0174
      6 C          62.7722   88.4502   11.8582 C.ar    1  UNL1        0.0849
      7 C          62.8222   83.9515   11.7634 C.3     1  UNL1        0.0521
      8 C          62.3269   83.1709   12.9447 C.3     1  UNL1        0.0241
      9 C          62.3436   81.6712   12.9130 C.3     1  UNL1        0.0727
     10 N          62.8556   80.9523   11.7002 N.3     1  UNL1       -0.2685
     11 C          63.3508   81.7329   10.5190 C.3     1  UNL1        0.1021
     12 C          63.3342   83.2325   10.5505 C.3     1  UNL1        0.1304
     13 O          63.8294   84.0131    9.3693 O.3     1  UNL1       -0.3827
     14 H          63.7501   84.9623    9.5527 H       1  UNL1        0.2104
     15 C          62.8723   79.4528   11.6686 C.3     1  UNL1        0.1043
     16 C          62.8683   78.7302   10.3542 C.3     1  UNL1        0.1544
     17 O          63.0542   77.2422   10.3157 O.3     1  UNL1       -0.3805
     18 H          63.9480   77.0201   10.6204 H       1  UNL1        0.2105
     19 C          59.9720   88.1101    9.2827 C.3     1  UNL1        0.2525
     20 O          61.3732   88.4807    9.6691 O.3     1  UNL1       -0.4702
     21 N          62.7555   89.9497   11.8898 N.pl3   1  UNL1       -0.2790
     22 H          62.1056   90.4464   11.3419 H       1  UNL1        0.1552
     23 C          63.7290   90.6926   12.7561 C.ar    1  UNL1        0.2383
     24 N          63.9530   90.2592   14.1745 N.ar    1  UNL1       -0.2093
     25 C          64.9266   91.0021   15.0408 C.ar    1  UNL1        0.1209
     26 C          65.6761   92.1782   14.4886 C.ar    1  UNL1        0.1021
     27 C          66.6914   93.0980   15.0995 C.ar    1  UNL1        0.0223
     28 C          67.0949   94.0998   14.0585 C.ar    1  UNL1        0.0208
     29 C          66.3289   93.7991   12.8044 C.ar    1  UNL1        0.0859
     30 N          65.4520   92.6115   13.0702 N.ar    1  UNL1       -0.2255
     31 N          64.4785   91.8687   12.2039 N.ar    1  UNL1       -0.1295
     32 C          66.4233   94.5536   11.5114 C.ar    1  UNL1        0.0517
     33 C          65.7922   95.9086   11.3859 C.ar    1  UNL1        0.0045
     34 C          65.8866   96.6631   10.0929 C.ar    1  UNL1        0.0002
     35 C          66.6119   96.0626    8.9253 C.ar    1  UNL1        0.0031
     36 C          67.2429   94.7076    9.0508 C.ar    1  UNL1        0.0369
     37 C          67.1486   93.9531   10.3438 C.ar    1  UNL1        0.1401
     38 O          67.7797   92.5981   10.4692 O.3     1  UNL1       -0.4714
     39 C          68.5803   92.0354    9.3323 C.3     1  UNL1        0.2525
@<TRIPOS>BOND
     1    19    20    1
     2    20     1    1
     3     1     2   ar
     4     2     3   ar
     5     7     3    1
     6     7     8    1
     7     8     9    1
     8     9    10    1
     9    10    15    1
    10    15    16    1
    11    16    17    1
    12    10    11    1
    13    11    12    1
    14    12    13    1
    15     3     4   ar
    16     4     5   ar
    17     5     6   ar
    18     6    21    1
    19    21    23    1
    20    23    24   ar
    21    24    25   ar
    22    25    26   ar
    23    26    27   ar
    24    27    28   ar
    25    28    29   ar
    26    29    32    1
    27    32    33   ar
    28    33    34   ar
    29    34    35   ar
    30    35    36   ar
    31    36    37   ar
    32    37    38    1
    33    38    39    1
    34    29    30   ar
    35    30    31   ar
    36     6     1   ar
    37    31    23   ar
    38    12     7    1
    39    30    26   ar
    40    37    32   ar
    41    17    18    1
    42    13    14    1
    43    21    22    1
@<TRIPOS>MOLECULE
*****
 39 43 0 0 0
SMALL
GASTEIGER

@<TRIPOS>ATOM
      1 C          62.7267   84.7166   14.8487 C.ar    1  UNL1        0.1517
      2 C          62.4770   83.4005   14.1740 C.ar    1  UNL1        0.0340
      3 C          63.4512   82.8816   13.1583 C.ar    1  UNL1       -0.0170
      4 C          64.6752   83.6788   12.8174 C.ar    1  UNL1       -0.0027
      5 C          64.9250   84.9950   13.4921 C.ar    1  UNL1        0.0174
      6 C          63.9508   85.5139   14.5078 C.ar    1  UNL1        0.0849
      7 C          63.2014   81.5654   12.4835 C.3     1  UNL1        0.0521
      8 C          62.7902   80.3727   13.2949 C.3     1  UNL1        0.0241
      9 C          62.5404   79.0565   12.6201 C.3     1  UNL1        0.0727
     10 N          62.7019   78.9331   11.1339 N.3     1  UNL1       -0.2685
     11 C          63.1132   80.1258   10.3226 C.3     1  UNL1        0.1021
     12 C          63.3629   81.4419   10.9973 C.3     1  UNL1        0.1304
     13 O          63.7742   82.6346   10.1860 O.3     1  UNL1       -0.3827
     14 H          63.8939   83.3985   10.7717 H       1  UNL1        0.2104
     15 C          62.4522   77.6170   10.4592 C.3     1  UNL1        0.1043
     16 C          63.5837   76.6548   10.2498 C.3     1  UNL1        0.1544
     17 O          64.6449   76.9548    9.2329 O.3     1  UNL1       -0.3805
     18 H          64.2546   76.9420    8.3450 H       1  UNL1        0.2105
     19 C          62.2470   85.7482   17.1845 C.3     1  UNL1        0.2525
     20 O          61.7525   85.2356   15.8644 O.3     1  UNL1       -0.4702
     21 N          64.2005   86.8301   15.1826 N.pl3   1  UNL1       -0.2790
     22 H          64.3954   86.8596   16.1471 H       1  UNL1        0.1552
     23 C          64.1534   88.1013   14.3877 C.ar    1  UNL1        0.2383
     24 N          64.8480   89.3298   14.8959 N.ar    1  UNL1       -0.2093
     25 C          64.8008   90.6010   14.1010 C.ar    1  UNL1        0.1209
     26 C          64.0590   90.6437   12.7980 C.ar    1  UNL1        0.1021
     27 C          63.8405   91.7448   11.8030 C.ar    1  UNL1        0.0223
     28 C          63.0108   91.1968   10.6800 C.ar    1  UNL1        0.0208
     29 C          62.7166   89.7570   10.9808 C.ar    1  UNL1        0.0859
     30 N          63.3644   89.4152   12.2898 N.ar    1  UNL1       -0.2255
     31 N          63.4116   88.1440   13.0846 N.ar    1  UNL1       -0.1295
     32 C          61.9152   88.8230   10.1232 C.ar    1  UNL1        0.0517
     33 C          62.4996   87.5092    9.6962 C.ar    1  UNL1        0.0045
     34 C          61.6983   86.5752    8.8386 C.ar    1  UNL1        0.0002
     35 C          60.3125   86.9550    8.4080 C.ar    1  UNL1        0.0031
     36 C          59.7281   88.2688    8.8350 C.ar    1  UNL1        0.0369
     37 C          60.5295   89.2028    9.6926 C.ar    1  UNL1        0.1401
     38 O          59.9450   90.5166   10.1196 O.3     1  UNL1       -0.4714
     39 C          59.3065   90.6500   11.4703 C.3     1  UNL1        0.2525
@<TRIPOS>BOND
     1    19    20    1
     2    20     1    1
     3     1     2   ar
     4     2     3   ar
     5     7     3    1
     6     7     8    1
     7     8     9    1
     8     9    10    1
     9    10    15    1
    10    15    16    1
    11    16    17    1
    12    10    11    1
    13    11    12    1
    14    12    13    1
    15     3     4   ar
    16     4     5   ar
    17     5     6   ar
    18     6    21    1
    19    21    23    1
    20    23    24   ar
    21    24    25   ar
    22    25    26   ar
    23    26    27   ar
    24    27    28   ar
    25    28    29   ar
    26    29    32    1
    27    32    33   ar
    28    33    34   ar
    29    34    35   ar
    30    35    36   ar
    31    36    37   ar
    32    37    38    1
    33    38    39    1
    34    29    30   ar
    35    30    31   ar
    36     6     1   ar
    37    31    23   ar
    38    12     7    1
    39    30    26   ar
    40    37    32   ar
    41    17    18    1
    42    13    14    1
    43    21    22    1
@<TRIPOS>MOLECULE
*****
 39 43 0 0 0
SMALL
GASTEIGER

@<TRIPOS>ATOM
      1 C          63.3188   87.1853   12.8589 C.ar    1  UNL1        0.1517
      2 C          63.4026   85.6882   12.8189 C.ar    1  UNL1        0.0340
      3 C          62.5468   84.9144   11.8603 C.ar    1  UNL1       -0.0170
      4 C          61.6071   85.6377   10.9418 C.ar    1  UNL1       -0.0027
      5 C          61.5233   87.1349   10.9817 C.ar    1  UNL1        0.0174
      6 C          62.3791   87.9087   11.9403 C.ar    1  UNL1        0.0849
      7 C          62.6306   83.4173   11.8204 C.3     1  UNL1        0.0521
      8 C          62.0595   82.6039   12.9438 C.3     1  UNL1        0.0241
      9 C          62.1433   81.1067   12.9038 C.3     1  UNL1        0.0727
     10 N          62.7982   80.4230   11.7404 N.3     1  UNL1       -0.2685
     11 C          63.3693   81.2365   10.6169 C.3     1  UNL1        0.1021
     12 C          63.2855   82.7336   10.6569 C.3     1  UNL1        0.1304
     13 O          63.8566   83.5470    9.5334 O.3     1  UNL1       -0.3827
     14 H          63.7197   84.4900    9.7149 H       1  UNL1        0.2104
     15 C          62.8820   78.9260   11.7004 C.3     1  UNL1        0.1043
     16 C          62.7963   78.2047   10.3879 C.3     1  UNL1        0.1544
     17 O          63.1835   76.7582   10.3004 O.3     1  UNL1       -0.3805
     18 H          64.1334   76.6666   10.4742 H       1  UNL1        0.2105
     19 C          64.6565   87.3129   15.0824 C.3     1  UNL1        0.2525
     20 O          64.1746   87.9590   13.8175 O.3     1  UNL1       -0.4702
     21 N          62.2953   89.4058   11.9803 N.pl3   1  UNL1       -0.2790
     22 H          61.6439   89.8776   11.4125 H       1  UNL1        0.1552
     23 C          63.2039   90.1839   12.8852 C.ar    1  UNL1        0.2383
     24 N          62.9866   90.1578   14.3691 N.ar    1  UNL1       -0.2093
     25 C          63.8952   90.9360   15.2740 C.ar    1  UNL1        0.1209
     26 C          65.0212   91.7402   14.6950 C.ar    1  UNL1        0.1021
     27 C          66.0712   92.6011   15.3325 C.ar    1  UNL1        0.0223
     28 C          66.9376   93.1592   14.2426 C.ar    1  UNL1        0.0208
     29 C          66.4229   92.6433   12.9315 C.ar    1  UNL1        0.0859
     30 N          65.2386   91.7664   13.2111 N.ar    1  UNL1       -0.2255
     31 N          64.3299   90.9882   12.3062 N.ar    1  UNL1       -0.1295
     32 C          66.9927   92.9505   11.5783 C.ar    1  UNL1        0.0517
     33 C          67.7913   91.9121   10.8475 C.ar    1  UNL1        0.0045
     34 C          68.3610   92.2193    9.4943 C.ar    1  UNL1        0.0002
     35 C          68.1322   93.5647    8.8719 C.ar    1  UNL1        0.0031
     36 C          67.3335   94.6030    9.6027 C.ar    1  UNL1        0.0369
     37 C          66.7638   94.2959   10.9559 C.ar    1  UNL1        0.1401
     38 O          65.9651   95.3342   11.6866 O.3     1  UNL1       -0.4714
     39 C          65.9091   96.7403   11.1672 C.3     1  UNL1        0.2525
@<TRIPOS>BOND
     1    19    20    1
     2    20     1    1
     3     1     2   ar
     4     2     3   ar
     5     7     3    1
     6     7     8    1
     7     8     9    1
     8     9    10    1
     9    10    15    1
    10    15    16    1
    11    16    17    1
    12    10    11    1
    13    11    12    1
    14    12    13    1
    15     3     4   ar
    16     4     5   ar
    17     5     6   ar
    18     6    21    1
    19    21    23    1
    20    23    24   ar
    21    24    25   ar
    22    25    26   ar
    23    26    27   ar
    24    27    28   ar
    25    28    29   ar
    26    29    32    1
    27    32    33   ar
    28    33    34   ar
    29    34    35   ar
    30    35    36   ar
    31    36    37   ar
    32    37    38    1
    33    38    39    1
    34    29    30   ar
    35    30    31   ar
    36     6     1   ar
    37    31    23   ar
    38    12     7    1
    39    30    26   ar
    40    37    32   ar
    41    17    18    1
    42    13    14    1
    43    21    22    1
@<TRIPOS>MOLECULE
*****
 39 43 0 0 0
SMALL
GASTEIGER

@<TRIPOS>ATOM
      1 C          62.7458   88.5386   12.3852 C.ar    1  UNL1        0.1517
      2 C          62.6192   87.5209   11.2905 C.ar    1  UNL1        0.0340
      3 C          61.8335   87.8432   10.0540 C.ar    1  UNL1       -0.0170
      4 C          61.1745   89.1832    9.9122 C.ar    1  UNL1       -0.0027
      5 C          61.3011   90.2009   11.0069 C.ar    1  UNL1        0.0174
      6 C          62.0868   89.8786   12.2434 C.ar    1  UNL1        0.0849
      7 C          61.7069   86.8256    8.9594 C.3     1  UNL1        0.0521
      8 C          62.9039   86.0271    8.5355 C.3     1  UNL1        0.0241
      9 C          62.7772   85.0094    7.4408 C.3     1  UNL1        0.0727
     10 N          61.4535   84.7902    6.7700 N.3     1  UNL1       -0.2685
     11 C          60.2566   85.5887    7.1939 C.3     1  UNL1        0.1021
     12 C          60.3832   86.6064    8.2886 C.3     1  UNL1        0.1304
     13 O          59.1862   87.4048    8.7125 O.3     1  UNL1       -0.3827
     14 H          59.4387   88.0123    9.4253 H       1  UNL1        0.2104
     15 C          61.3269   83.7726    5.6754 C.3     1  UNL1        0.1043
     16 C          61.9317   84.0401    4.3290 C.3     1  UNL1        0.1544
     17 O          61.0527   84.1326    3.1170 O.3     1  UNL1       -0.3805
     18 H          60.6480   83.2681    2.9443 H       1  UNL1        0.2105
     19 C          63.9637   86.8050   13.8890 C.3     1  UNL1        0.2525
     20 O          63.5314   88.2162   13.6216 O.3     1  UNL1       -0.4702
     21 N          62.2134   90.8963   13.3380 N.pl3   1  UNL1       -0.2790
     22 H          61.4119   91.3560   13.6779 H       1  UNL1        0.1552
     23 C          63.5613   91.2135   13.9149 C.ar    1  UNL1        0.2383
     24 N          63.8042   91.0522   15.3863 N.ar    1  UNL1       -0.2093
     25 C          65.1519   91.3694   15.9631 C.ar    1  UNL1        0.1209
     26 C          66.2569   91.8479   15.0686 C.ar    1  UNL1        0.1021
     27 C          67.6788   92.2350   15.3489 C.ar    1  UNL1        0.0223
     28 C          68.3146   92.6355   14.0508 C.ar    1  UNL1        0.0208
     29 C          67.2857   92.4960   12.9682 C.ar    1  UNL1        0.0859
     30 N          66.0140   92.0092   13.5972 N.ar    1  UNL1       -0.2255
     31 N          64.6662   91.6920   13.0204 N.ar    1  UNL1       -0.1295
     32 C          67.4923   92.7914   11.5121 C.ar    1  UNL1        0.0517
     33 C          68.3028   91.8560   10.6647 C.ar    1  UNL1        0.0045
     34 C          68.5094   92.1513    9.2087 C.ar    1  UNL1        0.0002
     35 C          67.9055   93.3820    8.6000 C.ar    1  UNL1        0.0031
     36 C          67.0950   94.3174    9.4474 C.ar    1  UNL1        0.0369
     37 C          66.8884   94.0221   10.9034 C.ar    1  UNL1        0.1401
     38 O          66.0778   94.9575   11.7508 O.3     1  UNL1       -0.4714
     39 C          66.0159   96.4167   11.4085 C.3     1  UNL1        0.2525
@<TRIPOS>BOND
     1    19    20    1
     2    20     1    1
     3     1     2   ar
     4     2     3   ar
     5     7     3    1
     6     7     8    1
     7     8     9    1
     8     9    10    1
     9    10    15    1
    10    15    16    1
    11    16    17    1
    12    10    11    1
    13    11    12    1
    14    12    13    1
    15     3     4   ar
    16     4     5   ar
    17     5     6   ar
    18     6    21    1
    19    21    23    1
    20    23    24   ar
    21    24    25   ar
    22    25    26   ar
    23    26    27   ar
    24    27    28   ar
    25    28    29   ar
    26    29    32    1
    27    32    33   ar
    28    33    34   ar
    29    34    35   ar
    30    35    36   ar
    31    36    37   ar
    32    37    38    1
    33    38    39    1
    34    29    30   ar
    35    30    31   ar
    36     6     1   ar
    37    31    23   ar
    38    12     7    1
    39    30    26   ar
    40    37    32   ar
    41    17    18    1
    42    13    14    1
    43    21    22    1
@<TRIPOS>MOLECULE
*****
 39 43 0 0 0
SMALL
GASTEIGER

@<TRIPOS>ATOM
      1 C          60.2552   89.3524    9.3165 C.ar    1  UNL1        0.1517
      2 C          60.2434   90.2476    8.1130 C.ar    1  UNL1        0.0340
      3 C          59.8004   89.7117    6.7839 C.ar    1  UNL1       -0.0170
      4 C          59.3692   88.2805    6.6583 C.ar    1  UNL1       -0.0027
      5 C          59.3811   87.3852    7.8618 C.ar    1  UNL1        0.0174
      6 C          59.8241   87.9212    9.1909 C.ar    1  UNL1        0.0849
      7 C          59.7886   90.6069    5.5804 C.3     1  UNL1        0.0521
      8 C          61.0780   90.9833    4.9129 C.3     1  UNL1        0.0241
      9 C          61.0661   91.8785    3.7094 C.3     1  UNL1        0.0727
     10 N          59.7648   92.3973    3.1734 N.3     1  UNL1       -0.2685
     11 C          58.4753   92.0210    3.8409 C.3     1  UNL1        0.1021
     12 C          58.4872   91.1258    5.0444 C.3     1  UNL1        0.1304
     13 O          57.1977   90.7494    5.7119 O.3     1  UNL1       -0.3827
     14 H          57.3820   90.1705    6.4681 H       1  UNL1        0.2104
     15 C          59.7530   93.2925    1.9699 C.3     1  UNL1        0.1043
     16 C          60.1258   92.7449    0.6241 C.3     1  UNL1        0.1544
     17 O          59.2815   91.6812   -0.0128 O.3     1  UNL1       -0.3805
     18 H          59.3343   90.8681    0.5136 H       1  UNL1        0.2105
     19 C          59.6855   90.4256   11.6130 C.3     1  UNL1        0.2525
     20 O          60.6982   89.8884   10.6456 O.3     1  UNL1       -0.4702
     21 N          59.8359   87.0260   10.3944 N.pl3   1  UNL1       -0.2790
     22 H          59.0585   87.0025   10.9981 H       1  UNL1        0.1552
     23 C          61.0322   86.1666   10.6782 C.ar    1  UNL1        0.2383
     24 N          61.6386   85.3401    9.5832 N.ar    1  UNL1       -0.2093
     25 C          62.8348   84.4807    9.8670 C.ar    1  UNL1        0.1209
     26 C          63.4245   84.4479   11.2458 C.ar    1  UNL1        0.1021
     27 C          64.5927   83.7025   11.8203 C.ar    1  UNL1        0.0223
     28 C          64.7081   84.0684   13.2704 C.ar    1  UNL1        0.0208
     29 C          63.6114   85.0399   13.5921 C.ar    1  UNL1        0.0859
     30 N          62.8181   85.2744   12.3408 N.ar    1  UNL1       -0.2255
     31 N          61.6219   86.1338   12.0570 N.ar    1  UNL1       -0.1295
     32 C          63.3533   85.6669   14.9301 C.ar    1  UNL1        0.0517
     33 C          62.6780   84.8761   16.0111 C.ar    1  UNL1        0.0045
     34 C          62.4198   85.5030   17.3492 C.ar    1  UNL1        0.0002
     35 C          62.8370   86.9207   17.6062 C.ar    1  UNL1        0.0031
     36 C          63.5123   87.7115   16.5252 C.ar    1  UNL1        0.0369
     37 C          63.7704   87.0845   15.1872 C.ar    1  UNL1        0.1401
     38 O          64.4458   87.8754   14.1062 O.3     1  UNL1       -0.4714
     39 C          63.7603   89.0693   13.5106 C.3     1  UNL1        0.2525
@<TRIPOS>BOND
     1    19    20    1
     2    20     1    1
     3     1     2   ar
     4     2     3   ar
     5     7     3    1
     6     7     8    1
     7     8     9    1
     8     9    10    1
     9    10    15    1
    10    15    16    1
    11    16    17    1
    12    10    11    1
    13    11    12    1
    14    12    13    1
    15     3     4   ar
    16     4     5   ar
    17     5     6   ar
    18     6    21    1
    19    21    23    1
    20    23    24   ar
    21    24    25   ar
    22    25    26   ar
    23    26    27   ar
    24    27    28   ar
    25    28    29   ar
    26    29    32    1
    27    32    33   ar
    28    33    34   ar
    29    34    35   ar
    30    35    36   ar
    31    36    37   ar
    32    37    38    1
    33    38    39    1
    34    29    30   ar
    35    30    31   ar
    36     6     1   ar
    37    31    23   ar
    38    12     7    1
    39    30    26   ar
    40    37    32   ar
    41    17    18    1
    42    13    14    1
    43    21    22    1
@<TRIPOS>MOLECULE
*****
 39 43 0 0 0
SMALL
GASTEIGER

@<TRIPOS>ATOM
      1 C          60.0821   89.3434    9.4497 C.ar    1  UNL1        0.1517
      2 C          60.0619   90.2327    8.2420 C.ar    1  UNL1        0.0340
      3 C          59.8167   89.6467    6.8831 C.ar    1  UNL1       -0.0170
      4 C          59.5918   88.1714    6.7320 C.ar    1  UNL1       -0.0027
      5 C          59.6120   87.2820    7.9398 C.ar    1  UNL1        0.0174
      6 C          59.8571   87.8680    9.2987 C.ar    1  UNL1        0.0849
      7 C          59.7965   90.5359    5.6754 C.3     1  UNL1        0.0521
      8 C          61.0814   90.9100    4.9978 C.3     1  UNL1        0.0241
      9 C          61.0611   91.7993    3.7899 C.3     1  UNL1        0.0727
     10 N          59.7560   92.3145    3.2598 N.3     1  UNL1       -0.2685
     11 C          58.4711   91.9405    3.9374 C.3     1  UNL1        0.1021
     12 C          58.4913   91.0512    5.1451 C.3     1  UNL1        0.1304
     13 O          57.2064   90.6772    5.8227 O.3     1  UNL1       -0.3827
     14 H          57.3960   90.1022    6.5805 H       1  UNL1        0.2104
     15 C          59.7358   93.2038    2.0520 C.3     1  UNL1        0.1043
     16 C          60.2200   92.6850    0.7305 C.3     1  UNL1        0.1544
     17 O          59.2829   91.9360   -0.1701 O.3     1  UNL1       -0.3805
     18 H          59.0303   91.0991    0.2502 H       1  UNL1        0.2105
     19 C          59.2383   90.6907   11.5047 C.3     1  UNL1        0.2525
     20 O          60.3273   89.9294   10.8086 O.3     1  UNL1       -0.4702
     21 N          59.8774   86.9788   10.5064 N.pl3   1  UNL1       -0.2790
     22 H          59.0835   86.4443   10.7375 H       1  UNL1        0.1552
     23 C          61.1071   86.9038   11.3621 C.ar    1  UNL1        0.2383
     24 N          61.8800   88.1505   11.6754 N.ar    1  UNL1       -0.2093
     25 C          63.1097   88.0755   12.5311 C.ar    1  UNL1        0.1209
     26 C          63.5665   86.7537   13.0735 C.ar    1  UNL1        0.1021
     27 C          64.7314   86.3720   13.9380 C.ar    1  UNL1        0.0223
     28 C          64.6785   84.8894   14.1590 C.ar    1  UNL1        0.0208
     29 C          63.4808   84.3547   13.4311 C.ar    1  UNL1        0.0859
     30 N          62.7936   85.5069   12.7602 N.ar    1  UNL1       -0.2255
     31 N          61.5639   85.5820   11.9045 N.ar    1  UNL1       -0.1295
     32 C          63.0466   82.9198   13.3826 C.ar    1  UNL1        0.0517
     33 C          62.0548   82.4021   14.3817 C.ar    1  UNL1        0.0045
     34 C          61.6206   80.9672   14.3332 C.ar    1  UNL1        0.0002
     35 C          62.1781   80.0498   13.2856 C.ar    1  UNL1        0.0031
     36 C          63.1700   80.5675   12.2864 C.ar    1  UNL1        0.0369
     37 C          63.6042   82.0024   12.3350 C.ar    1  UNL1        0.1401
     38 O          64.5961   82.5200   11.3358 O.3     1  UNL1       -0.4714
     39 C          64.1176   83.1716   10.0722 C.3     1  UNL1        0.2525
@<TRIPOS>BOND
     1    19    20    1
     2    20     1    1
     3     1     2   ar
     4     2     3   ar
     5     7     3    1
     6     7     8    1
     7     8     9    1
     8     9    10    1
     9    10    15    1
    10    15    16    1
    11    16    17    1
    12    10    11    1
    13    11    12    1
    14    12    13    1
    15     3     4   ar
    16     4     5   ar
    17     5     6   ar
    18     6    21    1
    19    21    23    1
    20    23    24   ar
    21    24    25   ar
    22    25    26   ar
    23    26    27   ar
    24    27    28   ar
    25    28    29   ar
    26    29    32    1
    27    32    33   ar
    28    33    34   ar
    29    34    35   ar
    30    35    36   ar
    31    36    37   ar
    32    37    38    1
    33    38    39    1
    34    29    30   ar
    35    30    31   ar
    36     6     1   ar
    37    31    23   ar
    38    12     7    1
    39    30    26   ar
    40    37    32   ar
    41    17    18    1
    42    13    14    1
    43    21    22    1
