@<TRIPOS>MOLECULE
*****
 31 33 0 0 0
SMALL
GASTEIGER

@<TRIPOS>ATOM
      1 C          63.1051   89.4937   12.0260 C.ar    1  UNL1        0.0942
      2 C          63.2249   90.3306   10.7869 C.ar    1  UNL1        0.1078
      3 N          64.0110   91.6077   10.8176 N.ar    1  UNL1       -0.2119
      4 C          64.6774   92.0479   12.0873 C.ar    1  UNL1        0.2206
      5 N          64.5576   91.2110   13.3264 N.ar    1  UNL1       -0.2094
      6 C          63.7714   89.9339   13.2957 C.ar    1  UNL1        0.1613
      7 O          60.8248   88.2585   11.8701 O.2     1  UNL1       -0.2700
      8 C          62.3189   88.2166   11.9953 C.2     1  UNL1        0.2488
      9 N          63.0270   86.8975   12.0899 N.am    1  UNL1       -0.3008
     10 H          64.0076   86.8700   12.1721 H       1  UNL1        0.1497
     11 C          62.2408   85.6205   12.0592 C.3     1  UNL1        0.0898
     12 C          62.7091   84.4324   12.8462 C.3     1  UNL1        0.0246
     13 C          62.6848   83.0661   12.2277 C.3     1  UNL1        0.0338
     14 C          63.1530   81.8781   13.0147 C.3     1  UNL1        0.1422
     15 O          63.6456   82.0564   14.4202 O.3     1  UNL1       -0.3538
     16 C          63.6699   83.4227   15.0388 C.3     1  UNL1        0.1422
     17 C          63.2017   84.6107   14.2518 C.3     1  UNL1        0.0338
     18 C          63.6516   89.0970   14.5347 C.3     1  UNL1        0.4351
     19 F          63.5318   88.2601   15.7738 F       1  UNL1       -0.1644
     20 F          64.8555   88.3058   14.1168 F       1  UNL1       -0.1644
     21 F          62.4476   89.8881   14.9526 F       1  UNL1       -0.1644
     22 N          65.4635   93.3250   12.1180 N.pl3   1  UNL1       -0.2825
     23 H          65.4093   93.9177   12.9022 H       1  UNL1        0.1551
     24 C          66.3323   93.6991   10.9538 C.ar    1  UNL1        0.0521
     25 C          66.2796   95.0901   10.3951 C.ar    1  UNL1        0.0261
     26 C          67.1483   95.4642    9.2309 C.ar    1  UNL1        0.0597
     27 CL         67.0955   96.8553    8.6722 Cl      1  UNL1       -0.0822
     28 C          68.0698   94.4473    8.6254 C.ar    1  UNL1        0.0229
     29 C          68.1225   93.0562    9.1841 C.ar    1  UNL1        0.0597
     30 CL         69.0440   92.0392    8.5786 Cl      1  UNL1       -0.0822
     31 C          67.2537   92.6821   10.3483 C.ar    1  UNL1        0.0261
@<TRIPOS>BOND
     1     7     8    2
     2     8     9   am
     3     9    11    1
     4    11    12    1
     5    12    13    1
     6    13    14    1
     7    14    15    1
     8    15    16    1
     9    16    17    1
    10     8     1    1
    11     1     2   ar
    12     2     3   ar
    13     3     4   ar
    14     4    22    1
    15    22    24    1
    16    24    25   ar
    17    25    26   ar
    18    26    27    1
    19    26    28   ar
    20    28    29   ar
    21    29    30    1
    22    29    31   ar
    23     4     5   ar
    24     5     6   ar
    25     6    18    1
    26    18    19    1
    27    18    20    1
    28    18    21    1
    29    17    12    1
    30     6     1   ar
    31    31    24   ar
    32     9    10    1
    33    22    23    1
@<TRIPOS>MOLECULE
*****
 31 33 0 0 0
SMALL
GASTEIGER

@<TRIPOS>ATOM
      1 C          62.9888   88.9942   12.1581 C.ar    1  UNL1        0.0942
      2 C          63.9021   89.1962   13.3307 C.ar    1  UNL1        0.1078
      3 N          64.6368   90.4937   13.4943 N.ar    1  UNL1       -0.2119
      4 C          64.4583   91.5891   12.4852 C.ar    1  UNL1        0.2206
      5 N          63.5450   91.3871   11.3126 N.ar    1  UNL1       -0.2094
      6 C          62.8102   90.0896   11.1490 C.ar    1  UNL1        0.1613
      7 O          60.7707   87.6978   11.7718 O.2     1  UNL1       -0.2700
      8 C          62.2541   87.6968   11.9945 C.2     1  UNL1        0.2488
      9 N          63.0027   86.3982   12.0535 N.am    1  UNL1       -0.3008
     10 H          63.9763   86.3976   12.1997 H       1  UNL1        0.1497
     11 C          62.2680   85.1008   11.8899 C.3     1  UNL1        0.0898
     12 C          62.6979   83.8922   12.6675 C.3     1  UNL1        0.0246
     13 C          62.6945   82.5411   12.0160 C.3     1  UNL1        0.0338
     14 C          63.1244   81.3325   12.7935 C.3     1  UNL1        0.1422
     15 O          63.5577   81.4751   14.2225 O.3     1  UNL1       -0.3538
     16 C          63.5611   82.8262   14.8739 C.3     1  UNL1        0.1422
     17 C          63.1312   84.0348   14.0964 C.3     1  UNL1        0.0338
     18 C          61.8970   89.8875    9.9764 C.3     1  UNL1        0.4351
     19 F          60.9837   89.6855    8.8038 F       1  UNL1       -0.1644
     20 F          60.9275   90.8710   10.5620 F       1  UNL1       -0.1644
     21 F          62.8664   88.9041    9.3908 F       1  UNL1       -0.1644
     22 N          65.1930   92.8866   12.6489 N.pl3   1  UNL1       -0.2825
     23 H          65.1067   93.3991   13.4850 H       1  UNL1        0.1551
     24 C          66.0593   93.4031   11.5386 C.ar    1  UNL1        0.0521
     25 C          66.9024   92.4528   10.7411 C.ar    1  UNL1        0.0261
     26 C          67.7687   92.9694    9.6308 C.ar    1  UNL1        0.0597
     27 CL         68.6119   92.0190    8.8333 Cl      1  UNL1       -0.0822
     28 C          67.7919   94.4362    9.3180 C.ar    1  UNL1        0.0229
     29 C          66.9488   95.3864   10.1155 C.ar    1  UNL1        0.0597
     30 CL         66.9719   96.8533    9.8027 Cl      1  UNL1       -0.0822
     31 C          66.0825   94.8699   11.2258 C.ar    1  UNL1        0.0261
@<TRIPOS>BOND
     1     7     8    2
     2     8     9   am
     3     9    11    1
     4    11    12    1
     5    12    13    1
     6    13    14    1
     7    14    15    1
     8    15    16    1
     9    16    17    1
    10     8     1    1
    11     1     2   ar
    12     2     3   ar
    13     3     4   ar
    14     4    22    1
    15    22    24    1
    16    24    25   ar
    17    25    26   ar
    18    26    27    1
    19    26    28   ar
    20    28    29   ar
    21    29    30    1
    22    29    31   ar
    23     4     5   ar
    24     5     6   ar
    25     6    18    1
    26    18    19    1
    27    18    20    1
    28    18    21    1
    29    17    12    1
    30     6     1   ar
    31    31    24   ar
    32     9    10    1
    33    22    23    1
@<TRIPOS>MOLECULE
*****
 31 33 0 0 0
SMALL
GASTEIGER

@<TRIPOS>ATOM
      1 C          63.0362   89.4734   12.0128 C.ar    1  UNL1        0.0942
      2 C          63.1481   90.3351   10.7901 C.ar    1  UNL1        0.1078
      3 N          63.9428   91.6063   10.8386 N.ar    1  UNL1       -0.2119
      4 C          64.6257   92.0159   12.1098 C.ar    1  UNL1        0.2206
      5 N          64.5139   91.1543   13.3325 N.ar    1  UNL1       -0.2094
      6 C          63.7191   89.8830   13.2840 C.ar    1  UNL1        0.1613
      7 O          60.7438   88.2559   11.9024 O.2     1  UNL1       -0.2700
      8 C          62.2415   88.2022   11.9644 C.2     1  UNL1        0.2488
      9 N          62.9446   86.8772   11.9779 N.am    1  UNL1       -0.3008
     10 H          63.9276   86.8419   12.0185 H       1  UNL1        0.1497
     11 C          62.1499   85.6060   11.9294 C.3     1  UNL1        0.0898
     12 C          62.5945   84.4128   12.7224 C.3     1  UNL1        0.0246
     13 C          62.8316   84.5390   14.1981 C.3     1  UNL1        0.0338
     14 C          63.2762   83.3458   14.9910 C.3     1  UNL1        0.1422
     15 O          63.4836   82.0265   14.3081 O.3     1  UNL1       -0.3538
     16 C          63.2465   81.9003   12.8324 C.3     1  UNL1        0.1422
     17 C          62.8020   83.0935   12.0395 C.3     1  UNL1        0.0338
     18 C          63.6073   89.0213   14.5067 C.3     1  UNL1        0.4351
     19 F          63.4954   88.1596   15.7294 F       1  UNL1       -0.1644
     20 F          62.4261   89.8245   14.9647 F       1  UNL1       -0.1644
     21 F          64.7884   88.2181   14.0487 F       1  UNL1       -0.1644
     22 N          65.4204   93.2872   12.1583 N.pl3   1  UNL1       -0.2825
     23 H          65.3792   93.8633   12.9555 H       1  UNL1        0.1551
     24 C          66.2779   93.6805   10.9921 C.ar    1  UNL1        0.0521
     25 C          67.2187   92.6837   10.3830 C.ar    1  UNL1        0.0261
     26 C          68.0762   93.0771    9.2168 C.ar    1  UNL1        0.0597
     27 CL         69.0171   92.0802    8.6077 Cl      1  UNL1       -0.0822
     28 C          67.9928   94.4673    8.6597 C.ar    1  UNL1        0.0229
     29 C          67.0520   95.4641    9.2689 C.ar    1  UNL1        0.0597
     30 CL         66.9686   96.8544    8.7118 Cl      1  UNL1       -0.0822
     31 C          66.1945   95.0707   10.4351 C.ar    1  UNL1        0.0261
@<TRIPOS>BOND
     1     7     8    2
     2     8     9   am
     3     9    11    1
     4    11    12    1
     5    12    13    1
     6    13    14    1
     7    14    15    1
     8    15    16    1
     9    16    17    1
    10     8     1    1
    11     1     2   ar
    12     2     3   ar
    13     3     4   ar
    14     4    22    1
    15    22    24    1
    16    24    25   ar
    17    25    26   ar
    18    26    27    1
    19    26    28   ar
    20    28    29   ar
    21    29    30    1
    22    29    31   ar
    23     4     5   ar
    24     5     6   ar
    25     6    18    1
    26    18    19    1
    27    18    20    1
    28    18    21    1
    29    17    12    1
    30     6     1   ar
    31    31    24   ar
    32     9    10    1
    33    22    23    1
@<TRIPOS>MOLECULE
*****
 31 33 0 0 0
SMALL
GASTEIGER

@<TRIPOS>ATOM
      1 C          63.5746   89.2866   12.7608 C.ar    1  UNL1        0.0942
      2 C          63.1088   88.0775   12.0050 C.ar    1  UNL1        0.1078
      3 N          63.1465   86.7262   12.6550 N.ar    1  UNL1       -0.2119
      4 C          63.6501   86.5839   14.0608 C.ar    1  UNL1        0.2206
      5 N          64.1159   87.7930   14.8166 N.ar    1  UNL1       -0.2094
      6 C          64.0781   89.1443   14.1665 C.ar    1  UNL1        0.1613
      7 O          62.2357   91.1953   11.6145 O.2     1  UNL1       -0.2700
      8 C          63.5369   90.6379   12.1108 C.2     1  UNL1        0.2488
      9 N          64.8003   91.4318   11.9571 N.am    1  UNL1       -0.3008
     10 H          65.6543   91.0659   12.2828 H       1  UNL1        0.1497
     11 C          64.7625   92.7831   11.3071 C.3     1  UNL1        0.0898
     12 C          65.9929   93.3332   10.6485 C.3     1  UNL1        0.0246
     13 C          66.1014   94.8032   10.3709 C.3     1  UNL1        0.0338
     14 C          67.3317   95.3533    9.7124 C.3     1  UNL1        0.1422
     15 O          68.4535   94.4333    9.3314 O.3     1  UNL1       -0.3538
     16 C          68.3450   92.9632    9.6090 C.3     1  UNL1        0.1422
     17 C          67.1147   92.4132   10.2676 C.3     1  UNL1        0.0338
     18 C          64.5439   90.3534   14.9223 C.3     1  UNL1        0.4351
     19 F          65.0097   91.5625   15.6781 F       1  UNL1       -0.1644
     20 F          63.1491   90.5747   15.4279 F       1  UNL1       -0.1644
     21 F          65.9387   90.1321   14.4167 F       1  UNL1       -0.1644
     22 N          63.6878   85.2326   14.7108 N.pl3   1  UNL1       -0.2825
     23 H          63.9453   85.1487   15.6573 H       1  UNL1        0.1551
     24 C          63.3333   84.0092   13.9187 C.ar    1  UNL1        0.0521
     25 C          62.3346   83.0291   14.4591 C.ar    1  UNL1        0.0261
     26 C          61.9800   81.8057   13.6670 C.ar    1  UNL1        0.0597
     27 CL         60.9813   80.8256   14.2076 Cl      1  UNL1       -0.0822
     28 C          62.6241   81.5623   12.3344 C.ar    1  UNL1        0.0229
     29 C          63.6228   82.5423   11.7939 C.ar    1  UNL1        0.0597
     30 CL         64.2669   82.2989   10.4613 Cl      1  UNL1       -0.0822
     31 C          63.9773   83.7658   12.5861 C.ar    1  UNL1        0.0261
@<TRIPOS>BOND
     1     7     8    2
     2     8     9   am
     3     9    11    1
     4    11    12    1
     5    12    13    1
     6    13    14    1
     7    14    15    1
     8    15    16    1
     9    16    17    1
    10     8     1    1
    11     1     2   ar
    12     2     3   ar
    13     3     4   ar
    14     4    22    1
    15    22    24    1
    16    24    25   ar
    17    25    26   ar
    18    26    27    1
    19    26    28   ar
    20    28    29   ar
    21    29    30    1
    22    29    31   ar
    23     4     5   ar
    24     5     6   ar
    25     6    18    1
    26    18    19    1
    27    18    20    1
    28    18    21    1
    29    17    12    1
    30     6     1   ar
    31    31    24   ar
    32     9    10    1
    33    22    23    1
@<TRIPOS>MOLECULE
*****
 31 33 0 0 0
SMALL
GASTEIGER

@<TRIPOS>ATOM
      1 C          63.4417   89.2175   12.4689 C.ar    1  UNL1        0.0942
      2 C          64.2065   89.0368   13.7466 C.ar    1  UNL1        0.1078
      3 N          64.2452   87.6941   14.4141 N.ar    1  UNL1       -0.2119
      4 C          63.5191   86.5320   13.8039 C.ar    1  UNL1        0.2206
      5 N          62.7543   86.7126   12.5263 N.ar    1  UNL1       -0.2094
      6 C          62.7156   88.0554   11.8588 C.ar    1  UNL1        0.1613
      7 O          62.1122   91.0844   11.2454 O.2     1  UNL1       -0.2700
      8 C          63.4029   90.5602   11.8015 C.2     1  UNL1        0.2488
      9 N          64.6550   91.3788   11.6900 N.am    1  UNL1       -0.3008
     10 H          65.5021   91.0348   12.0549 H       1  UNL1        0.1497
     11 C          64.6162   92.7215   11.0225 C.3     1  UNL1        0.0898
     12 C          65.8784   93.3290   10.4858 C.3     1  UNL1        0.0246
     13 C          67.0505   92.4534   10.1550 C.3     1  UNL1        0.0338
     14 C          68.3126   93.0609    9.6183 C.3     1  UNL1        0.1422
     15 O          68.4025   94.5439    9.4123 O.3     1  UNL1       -0.3538
     16 C          67.2304   95.4195    9.7431 C.3     1  UNL1        0.1422
     17 C          65.9683   94.8120   10.2798 C.3     1  UNL1        0.0338
     18 C          61.9508   88.2361   10.5811 C.3     1  UNL1        0.4351
     19 F          61.1859   88.4167    9.3034 F       1  UNL1       -0.1644
     20 F          60.6877   88.4353   11.3653 F       1  UNL1       -0.1644
     21 F          63.2138   88.0369    9.7969 F       1  UNL1       -0.1644
     22 N          63.5578   85.1893   14.4714 N.pl3   1  UNL1       -0.2825
     23 H          63.7877   85.1207   15.4262 H       1  UNL1        0.1551
     24 C          63.2464   83.9511   13.6841 C.ar    1  UNL1        0.0521
     25 C          63.8697   83.7431   12.3357 C.ar    1  UNL1        0.0261
     26 C          63.5582   82.5048   11.5484 C.ar    1  UNL1        0.0597
     27 CL         64.1815   82.2969   10.2000 Cl      1  UNL1       -0.0822
     28 C          62.6235   81.4746   12.1096 C.ar    1  UNL1        0.0229
     29 C          62.0002   81.6826   13.4580 C.ar    1  UNL1        0.0597
     30 CL         61.0655   80.6523   14.0191 Cl      1  UNL1       -0.0822
     31 C          62.3117   82.9208   14.2452 C.ar    1  UNL1        0.0261
@<TRIPOS>BOND
     1     7     8    2
     2     8     9   am
     3     9    11    1
     4    11    12    1
     5    12    13    1
     6    13    14    1
     7    14    15    1
     8    15    16    1
     9    16    17    1
    10     8     1    1
    11     1     2   ar
    12     2     3   ar
    13     3     4   ar
    14     4    22    1
    15    22    24    1
    16    24    25   ar
    17    25    26   ar
    18    26    27    1
    19    26    28   ar
    20    28    29   ar
    21    29    30    1
    22    29    31   ar
    23     4     5   ar
    24     5     6   ar
    25     6    18    1
    26    18    19    1
    27    18    20    1
    28    18    21    1
    29    17    12    1
    30     6     1   ar
    31    31    24   ar
    32     9    10    1
    33    22    23    1
@<TRIPOS>MOLECULE
*****
 31 33 0 0 0
SMALL
GASTEIGER

@<TRIPOS>ATOM
      1 C          61.1534   88.7415   10.5934 C.ar    1  UNL1        0.0942
      2 C          62.4723   88.0299   10.6589 C.ar    1  UNL1        0.1078
      3 N          63.4163   88.3029   11.7922 N.ar    1  UNL1       -0.2119
      4 C          63.0414   89.2875   12.8600 C.ar    1  UNL1        0.2206
      5 N          61.7226   89.9991   12.7945 N.ar    1  UNL1       -0.2094
      6 C          60.7785   89.7260   11.6611 C.ar    1  UNL1        0.1613
      7 O          59.2273   87.3389    9.5577 O.2     1  UNL1       -0.2700
      8 C          60.2094   88.4685    9.4602 C.2     1  UNL1        0.2488
      9 N          60.2475   89.3251    8.2293 N.am    1  UNL1       -0.3008
     10 H          60.8921   90.0664    8.1653 H       1  UNL1        0.1497
     11 C          59.3035   89.0520    7.0961 C.3     1  UNL1        0.0898
     12 C          59.0215   90.1199    6.0810 C.3     1  UNL1        0.0246
     13 C          57.6062   90.5214    5.7882 C.3     1  UNL1        0.0338
     14 C          57.3243   91.5891    4.7732 C.3     1  UNL1        0.1422
     15 O          58.4576   92.2554    4.0509 O.3     1  UNL1       -0.3538
     16 C          59.8729   91.8539    4.3437 C.3     1  UNL1        0.1422
     17 C          60.1548   90.7861    5.3587 C.3     1  UNL1        0.0338
     18 C          59.4597   90.4376   11.5956 C.3     1  UNL1        0.4351
     19 F          58.1408   91.1491   11.5301 F       1  UNL1       -0.1644
     20 F          60.0912   91.5339   10.7898 F       1  UNL1       -0.1644
     21 F          58.8282   89.3413   12.4014 F       1  UNL1       -0.1644
     22 N          63.9854   89.5605   13.9932 N.pl3   1  UNL1       -0.2825
     23 H          64.0454   88.9298   14.7467 H       1  UNL1        0.1551
     24 C          64.8380   90.7946   13.9785 C.ar    1  UNL1        0.0521
     25 C          65.6446   91.1635   15.1881 C.ar    1  UNL1        0.0261
     26 C          66.4971   92.3975   15.1734 C.ar    1  UNL1        0.0597
     27 CL         67.3037   92.7664   16.3831 Cl      1  UNL1       -0.0822
     28 C          66.5431   93.2627   13.9489 C.ar    1  UNL1        0.0229
     29 C          65.7365   92.8939   12.7393 C.ar    1  UNL1        0.0597
     30 CL         65.7825   93.7591   11.5148 Cl      1  UNL1       -0.0822
     31 C          64.8840   91.6598   12.7540 C.ar    1  UNL1        0.0261
@<TRIPOS>BOND
     1     7     8    2
     2     8     9   am
     3     9    11    1
     4    11    12    1
     5    12    13    1
     6    13    14    1
     7    14    15    1
     8    15    16    1
     9    16    17    1
    10     8     1    1
    11     1     2   ar
    12     2     3   ar
    13     3     4   ar
    14     4    22    1
    15    22    24    1
    16    24    25   ar
    17    25    26   ar
    18    26    27    1
    19    26    28   ar
    20    28    29   ar
    21    29    30    1
    22    29    31   ar
    23     4     5   ar
    24     5     6   ar
    25     6    18    1
    26    18    19    1
    27    18    20    1
    28    18    21    1
    29    17    12    1
    30     6     1   ar
    31    31    24   ar
    32     9    10    1
    33    22    23    1
@<TRIPOS>MOLECULE
*****
 31 33 0 0 0
SMALL
GASTEIGER

@<TRIPOS>ATOM
      1 C          65.7851   92.4011   12.5959 C.ar    1  UNL1        0.0942
      2 C          64.5571   91.7320   12.0534 C.ar    1  UNL1        0.1078
      3 N          63.9647   90.5558   12.7713 N.ar    1  UNL1       -0.2119
      4 C          64.6003   90.0486   14.0318 C.ar    1  UNL1        0.2206
      5 N          65.8282   90.7177   14.5744 N.ar    1  UNL1       -0.2094
      6 C          66.4206   91.8940   13.8564 C.ar    1  UNL1        0.1613
      7 O          67.4147   93.3631   10.8158 O.2     1  UNL1       -0.2700
      8 C          66.3775   93.5774   11.8780 C.2     1  UNL1        0.2488
      9 N          65.9328   94.9680   12.2223 N.am    1  UNL1       -0.3008
     10 H          65.2521   95.1087   12.9195 H       1  UNL1        0.1497
     11 C          66.5252   96.1442   11.5044 C.3     1  UNL1        0.0898
     12 C          66.2281   96.3629   10.0504 C.3     1  UNL1        0.0246
     13 C          64.8213   96.6305    9.6043 C.3     1  UNL1        0.0338
     14 C          64.5243   96.8491    8.1504 C.3     1  UNL1        0.1422
     15 O          65.6342   96.8001    7.1426 O.3     1  UNL1       -0.3538
     16 C          67.0410   96.5325    7.5886 C.3     1  UNL1        0.1422
     17 C          67.3380   96.3139    9.0426 C.3     1  UNL1        0.0338
     18 C          67.6486   92.5632   14.3990 C.3     1  UNL1        0.4351
     19 F          68.8766   93.2323   14.9415 F       1  UNL1       -0.1644
     20 F          68.5100   91.6169   13.6164 F       1  UNL1       -0.1644
     21 F          66.7872   93.5094   15.1816 F       1  UNL1       -0.1644
     22 N          64.0078   88.8724   14.7498 N.pl3   1  UNL1       -0.2825
     23 H          63.7634   88.9480   15.7004 H       1  UNL1        0.1551
     24 C          63.7879   87.5808   14.0193 C.ar    1  UNL1        0.0521
     25 C          64.2476   86.2884   14.6260 C.ar    1  UNL1        0.0261
     26 C          64.0276   84.9968   13.8955 C.ar    1  UNL1        0.0597
     27 CL         64.4873   83.7043   14.5023 Cl      1  UNL1       -0.0822
     28 C          63.3480   84.9978   12.5583 C.ar    1  UNL1        0.0229
     29 C          62.8884   86.2903   11.9516 C.ar    1  UNL1        0.0597
     30 CL         62.2087   86.2913   10.6144 Cl      1  UNL1       -0.0822
     31 C          63.1083   87.5818   12.6821 C.ar    1  UNL1        0.0261
@<TRIPOS>BOND
     1     7     8    2
     2     8     9   am
     3     9    11    1
     4    11    12    1
     5    12    13    1
     6    13    14    1
     7    14    15    1
     8    15    16    1
     9    16    17    1
    10     8     1    1
    11     1     2   ar
    12     2     3   ar
    13     3     4   ar
    14     4    22    1
    15    22    24    1
    16    24    25   ar
    17    25    26   ar
    18    26    27    1
    19    26    28   ar
    20    28    29   ar
    21    29    30    1
    22    29    31   ar
    23     4     5   ar
    24     5     6   ar
    25     6    18    1
    26    18    19    1
    27    18    20    1
    28    18    21    1
    29    17    12    1
    30     6     1   ar
    31    31    24   ar
    32     9    10    1
    33    22    23    1
@<TRIPOS>MOLECULE
*****
 31 33 0 0 0
SMALL
GASTEIGER

@<TRIPOS>ATOM
      1 C          63.8236   89.4925   13.0118 C.ar    1  UNL1        0.0942
      2 C          64.4949   88.8488   14.1887 C.ar    1  UNL1        0.1078
      3 N          64.2149   87.4126   14.5188 N.ar    1  UNL1       -0.2119
      4 C          63.2635   86.6201   13.6721 C.ar    1  UNL1        0.2206
      5 N          62.5921   87.2638   12.4953 N.ar    1  UNL1       -0.2094
      6 C          62.8722   88.7001   12.1652 C.ar    1  UNL1        0.1613
      7 O          64.0530   91.9698   13.7603 O.2     1  UNL1       -0.2700
      8 C          64.1036   90.9286   12.6817 C.2     1  UNL1        0.2488
      9 N          64.4341   91.3237   11.2729 N.am    1  UNL1       -0.3008
     10 H          64.4673   90.6403   10.5649 H       1  UNL1        0.1497
     11 C          64.7142   92.7598   10.9427 C.3     1  UNL1        0.0898
     12 C          66.0652   93.1618   10.4296 C.3     1  UNL1        0.0246
     13 C          66.3024   94.5674    9.9627 C.3     1  UNL1        0.0338
     14 C          67.6533   94.9693    9.4496 C.3     1  UNL1        0.1422
     15 O          68.7671   93.9656    9.4034 O.3     1  UNL1       -0.3538
     16 C          68.5299   92.5600    9.8703 C.3     1  UNL1        0.1422
     17 C          67.1790   92.1581   10.3834 C.3     1  UNL1        0.0338
     18 C          62.2008   89.3438   10.9884 C.3     1  UNL1        0.4351
     19 F          61.5295   89.9875    9.8115 F       1  UNL1       -0.1644
     20 F          63.0928   88.5751   10.0591 F       1  UNL1       -0.1644
     21 F          61.3088   90.1124   11.9176 F       1  UNL1       -0.1644
     22 N          62.9834   85.1840   14.0023 N.pl3   1  UNL1       -0.2825
     23 H          62.7413   84.9284   14.9217 H       1  UNL1        0.1551
     24 C          63.0723   84.1372   12.9316 C.ar    1  UNL1        0.0521
     25 C          62.8321   82.6958   13.2702 C.ar    1  UNL1        0.0261
     26 C          62.9209   81.6490   12.1996 C.ar    1  UNL1        0.0597
     27 CL         62.6807   80.2075   12.5382 Cl      1  UNL1       -0.0822
     28 C          63.2499   82.0436   10.7903 C.ar    1  UNL1        0.0229
     29 C          63.4901   83.4849   10.4517 C.ar    1  UNL1        0.0597
     30 CL         63.8192   83.8796    9.0424 Cl      1  UNL1       -0.0822
     31 C          63.4013   84.5317   11.5224 C.ar    1  UNL1        0.0261
@<TRIPOS>BOND
     1     7     8    2
     2     8     9   am
     3     9    11    1
     4    11    12    1
     5    12    13    1
     6    13    14    1
     7    14    15    1
     8    15    16    1
     9    16    17    1
    10     8     1    1
    11     1     2   ar
    12     2     3   ar
    13     3     4   ar
    14     4    22    1
    15    22    24    1
    16    24    25   ar
    17    25    26   ar
    18    26    27    1
    19    26    28   ar
    20    28    29   ar
    21    29    30    1
    22    29    31   ar
    23     4     5   ar
    24     5     6   ar
    25     6    18    1
    26    18    19    1
    27    18    20    1
    28    18    21    1
    29    17    12    1
    30     6     1   ar
    31    31    24   ar
    32     9    10    1
    33    22    23    1
@<TRIPOS>MOLECULE
*****
 31 33 0 0 0
SMALL
GASTEIGER

@<TRIPOS>ATOM
      1 C          63.2396   86.5452   12.5506 C.ar    1  UNL1        0.0942
      2 C          63.0047   87.9338   12.0343 C.ar    1  UNL1        0.1078
      3 N          63.3527   89.1192   12.8851 N.ar    1  UNL1       -0.2119
      4 C          63.9356   88.9159   14.2522 C.ar    1  UNL1        0.2206
      5 N          64.1704   87.5273   14.7685 N.ar    1  UNL1       -0.2094
      6 C          63.8224   86.3419   13.9177 C.ar    1  UNL1        0.1613
      7 O          61.5099   85.2240   11.1320 O.2     1  UNL1       -0.2700
      8 C          62.8916   85.3599   11.6998 C.2     1  UNL1        0.2488
      9 N          63.9254   84.3104   11.4168 N.am    1  UNL1       -0.3008
     10 H          64.8322   84.3996   11.7895 H       1  UNL1        0.1497
     11 C          63.5774   83.1251   10.5660 C.3     1  UNL1        0.0898
     12 C          63.1777   81.8308   11.2104 C.3     1  UNL1        0.0246
     13 C          62.7908   81.8024   12.6594 C.3     1  UNL1        0.0338
     14 C          62.3912   80.5082   13.3036 C.3     1  UNL1        0.1422
     15 O          62.3784   79.2423   12.4990 O.3     1  UNL1       -0.3538
     16 C          62.7653   79.2707   11.0501 C.3     1  UNL1        0.1422
     17 C          63.1649   80.5649   10.4058 C.3     1  UNL1        0.0338
     18 C          64.0573   84.9533   14.4340 C.3     1  UNL1        0.4351
     19 F          64.2921   83.5647   14.9503 F       1  UNL1       -0.1644
     20 F          65.5279   85.1086   14.1828 F       1  UNL1       -0.1644
     21 F          62.5866   84.7980   14.6851 F       1  UNL1       -0.1644
     22 N          64.2835   90.1012   15.1030 N.pl3   1  UNL1       -0.2825
     23 H          63.9888   90.1369   16.0417 H       1  UNL1        0.1551
     24 C          65.0805   91.2322   14.5236 C.ar    1  UNL1        0.0521
     25 C          66.1102   91.9305   15.3615 C.ar    1  UNL1        0.0261
     26 C          66.9072   93.0615   14.7821 C.ar    1  UNL1        0.0597
     27 CL         67.9370   93.7598   15.6200 Cl      1  UNL1       -0.0822
     28 C          66.6745   93.4942   13.3649 C.ar    1  UNL1        0.0229
     29 C          65.6447   92.7959   12.5270 C.ar    1  UNL1        0.0597
     30 CL         65.4119   93.2286   11.1097 Cl      1  UNL1       -0.0822
     31 C          64.8478   91.6649   13.1064 C.ar    1  UNL1        0.0261
@<TRIPOS>BOND
     1     7     8    2
     2     8     9   am
     3     9    11    1
     4    11    12    1
     5    12    13    1
     6    13    14    1
     7    14    15    1
     8    15    16    1
     9    16    17    1
    10     8     1    1
    11     1     2   ar
    12     2     3   ar
    13     3     4   ar
    14     4    22    1
    15    22    24    1
    16    24    25   ar
    17    25    26   ar
    18    26    27    1
    19    26    28   ar
    20    28    29   ar
    21    29    30    1
    22    29    31   ar
    23     4     5   ar
    24     5     6   ar
    25     6    18    1
    26    18    19    1
    27    18    20    1
    28    18    21    1
    29    17    12    1
    30     6     1   ar
    31    31    24   ar
    32     9    10    1
    33    22    23    1
