@<TRIPOS>MOLECULE
*****
 35 38 0 0 0
SMALL
GASTEIGER

@<TRIPOS>ATOM
      1 C          65.5812   92.4901   11.7051 C.ar    1  UNL1        0.1060
      2 C          65.7768   92.5144   13.1921 C.ar    1  UNL1        0.0215
      3 C          64.8696   91.7164   14.0811 C.ar    1  UNL1        0.0384
      4 C          63.7668   90.8942   13.4829 C.ar    1  UNL1        0.1432
      5 C          63.5712   90.8698   11.9960 C.ar    1  UNL1        0.0888
      6 C          64.4784   91.6678   11.1070 C.ar    1  UNL1        0.0259
      7 C          62.4683   90.0476   11.3980 C.2     1  UNL1        0.2525
      8 O          61.3497   90.7184   10.6574 O.2     1  UNL1       -0.2698
      9 N          62.4842   88.5544   11.5406 N.am    1  UNL1       -0.2660
     10 C          63.5311   87.7475   12.2497 C.3     1  UNL1        0.1236
     11 C          63.1498   86.3005   12.1464 C.ar    1  UNL1        0.0338
     12 C          63.5612   84.9075   12.5209 C.ar    1  UNL1        0.0990
     13 N          62.5329   83.9590   11.9795 N.ar    1  UNL1       -0.2286
     14 N          61.4859   84.7660   11.2704 N.ar    1  UNL1       -0.1680
     15 C          61.8672   86.2131   11.3736 C.ar    1  UNL1        0.0981
     16 C          61.4558   87.6061   10.9991 C.3     1  UNL1        0.1414
     17 C          62.5487   82.4660   12.1220 C.ar    1  UNL1        0.0855
     18 C          62.3362   81.8388   13.4679 C.ar    1  UNL1        0.0398
     19 C          62.3520   80.3457   13.6106 C.ar    1  UNL1        0.1000
     20 N          62.5803   79.4797   12.4073 N.ar    1  UNL1       -0.2480
     21 C          62.7929   80.1069   11.0613 C.ar    1  UNL1        0.0609
     22 C          63.0212   79.2409    9.8579 C.3     1  UNL1        0.0521
     23 C          62.7770   81.6000   10.9187 C.ar    1  UNL1        0.0339
     24 S          66.4884   93.2880   10.8161 S.O2    1  UNL1        0.0087
     25 O          65.3487   94.2006   10.4722 O.2     1  UNL1       -0.1686
     26 O          67.6281   92.3755   11.1601 O.2     1  UNL1       -0.1686
     27 C          68.3210   93.3853    8.9771 C.3     1  UNL1        0.0276
     28 C          67.3956   94.0860    9.9271 C.3     1  UNL1        0.1560
     29 O          62.8596   90.0962   14.3719 O.3     1  UNL1       -0.4702
     30 C          63.3419   89.6343   15.7150 C.3     1  UNL1        0.2599
     31 C          63.5647   90.6296   16.8149 C.3     1  UNL1        0.0566
     32 C          63.6015   88.1771   15.9583 C.3     1  UNL1        0.4340
     33 F          63.8611   86.7199   16.2017 F       1  UNL1       -0.1664
     34 F          64.6809   88.1955   14.9170 F       1  UNL1       -0.1664
     35 F          62.5221   88.1587   16.9997 F       1  UNL1       -0.1664
@<TRIPOS>BOND
     1    27    28    1
     2    28    24    1
     3    24    25    2
     4    24    26    2
     5    24     1    1
     6     1     2   ar
     7     2     3   ar
     8     3     4   ar
     9     4    29    1
    10    29    30    1
    11    30    31    1
    12    30    32    1
    13    32    33    1
    14    32    34    1
    15    32    35    1
    16     4     5   ar
    17     5     7    1
    18     7     8    2
    19     7     9   am
    20     9    10    1
    21    10    11    1
    22    11    12   ar
    23    12    13   ar
    24    13    17    1
    25    17    18   ar
    26    18    19   ar
    27    19    20   ar
    28    20    21   ar
    29    21    22    1
    30    21    23   ar
    31    13    14   ar
    32    14    15   ar
    33    15    16    1
    34     5     6   ar
    35     6     1   ar
    36    16     9    1
    37    15    11   ar
    38    23    17   ar
@<TRIPOS>MOLECULE
*****
 35 38 0 0 0
SMALL
GASTEIGER

@<TRIPOS>ATOM
      1 C          63.8847   87.9472   13.8674 C.ar    1  UNL1        0.1060
      2 C          64.5568   87.0216   14.8377 C.ar    1  UNL1        0.0215
      3 C          64.5053   85.5386   14.6183 C.ar    1  UNL1        0.0384
      4 C          63.7814   84.9813   13.4285 C.ar    1  UNL1        0.1432
      5 C          63.1093   85.9068   12.4582 C.ar    1  UNL1        0.0888
      6 C          63.1609   87.3898   12.6776 C.ar    1  UNL1        0.0259
      7 C          62.3855   85.3494   11.2684 C.2     1  UNL1        0.2525
      8 O          62.3194   83.8657   11.0583 O.2     1  UNL1       -0.2698
      9 N          61.7279   86.2757   10.2889 N.am    1  UNL1       -0.2660
     10 C          61.7103   87.7736   10.3670 C.3     1  UNL1        0.1236
     11 C          60.9439   88.2903    9.1857 C.ar    1  UNL1        0.0338
     12 C          60.4593   89.5354    8.5038 C.ar    1  UNL1        0.0990
     13 N          59.7038   89.1265    7.2741 N.ar    1  UNL1       -0.2286
     14 N          59.7215   87.6285    7.1960 N.ar    1  UNL1       -0.1680
     15 C          60.4879   87.1118    8.3774 C.ar    1  UNL1        0.0981
     16 C          60.9724   85.8667    9.0593 C.3     1  UNL1        0.1414
     17 C          59.0462   90.0527    6.2946 C.ar    1  UNL1        0.0855
     18 C          57.5511   90.0826    6.1782 C.ar    1  UNL1        0.0398
     19 C          56.8933   91.0089    5.1987 C.ar    1  UNL1        0.1000
     20 N          57.7309   91.9052    4.3355 N.ar    1  UNL1       -0.2480
     21 C          59.2261   91.8753    4.4519 C.ar    1  UNL1        0.0609
     22 C          60.0636   92.7718    3.5887 C.3     1  UNL1        0.0521
     23 C          59.8837   90.9491    5.4314 C.ar    1  UNL1        0.0339
     24 S          63.9363   89.4301   14.0868 S.O2    1  UNL1        0.0087
     25 O          63.8710   89.6517   12.6046 O.2     1  UNL1       -0.1686
     26 O          64.0015   89.2086   15.5689 O.2     1  UNL1       -0.1686
     27 C          65.3091   91.6229   14.3255 C.3     1  UNL1        0.0276
     28 C          63.9878   90.9131   14.3062 C.3     1  UNL1        0.1560
     29 O          63.7299   83.4983   13.2091 O.3     1  UNL1       -0.4702
     30 C          62.8111   82.6492   14.0367 C.3     1  UNL1        0.2599
     31 C          62.1048   83.2417   15.2199 C.3     1  UNL1        0.0566
     32 C          62.5986   81.2076   13.6811 C.3     1  UNL1        0.4340
     33 F          62.3860   79.7658   13.3256 F       1  UNL1       -0.1664
     34 F          63.9345   81.1786   12.9996 F       1  UNL1       -0.1664
     35 F          61.2627   81.2364   14.3626 F       1  UNL1       -0.1664
@<TRIPOS>BOND
     1    27    28    1
     2    28    24    1
     3    24    25    2
     4    24    26    2
     5    24     1    1
     6     1     2   ar
     7     2     3   ar
     8     3     4   ar
     9     4    29    1
    10    29    30    1
    11    30    31    1
    12    30    32    1
    13    32    33    1
    14    32    34    1
    15    32    35    1
    16     4     5   ar
    17     5     7    1
    18     7     8    2
    19     7     9   am
    20     9    10    1
    21    10    11    1
    22    11    12   ar
    23    12    13   ar
    24    13    17    1
    25    17    18   ar
    26    18    19   ar
    27    19    20   ar
    28    20    21   ar
    29    21    22    1
    30    21    23   ar
    31    13    14   ar
    32    14    15   ar
    33    15    16    1
    34     5     6   ar
    35     6     1   ar
    36    16     9    1
    37    15    11   ar
    38    23    17   ar
@<TRIPOS>MOLECULE
*****
 35 38 0 0 0
SMALL
GASTEIGER

@<TRIPOS>ATOM
      1 C          60.5550   92.1848    3.5958 C.ar    1  UNL1        0.1060
      2 C          61.8541   91.5083    3.2721 C.ar    1  UNL1        0.0215
      3 C          62.8003   92.1323    2.2896 C.ar    1  UNL1        0.0384
      4 C          62.4473   93.4330    1.6308 C.ar    1  UNL1        0.1432
      5 C          61.1482   94.1095    1.9544 C.ar    1  UNL1        0.0888
      6 C          60.2021   93.4853    2.9370 C.ar    1  UNL1        0.0259
      7 C          60.7954   95.4100    1.2956 C.2     1  UNL1        0.2525
      8 O          61.6189   96.6345    1.5643 O.2     1  UNL1       -0.2698
      9 N          59.6189   95.4860    0.3681 N.am    1  UNL1       -0.2660
     10 C          58.7076   94.3512    0.0052 C.3     1  UNL1        0.1236
     11 C          57.6728   94.8740   -0.9465 C.ar    1  UNL1        0.0338
     12 C          56.4700   94.4958   -1.7590 C.ar    1  UNL1        0.0990
     13 N          55.9983   95.7199   -2.4865 N.ar    1  UNL1       -0.2286
     14 N          56.9097   96.8547   -2.1235 N.ar    1  UNL1       -0.1680
     15 C          57.9445   96.3319   -1.1718 C.ar    1  UNL1        0.0981
     16 C          59.1474   96.7101   -0.3593 C.3     1  UNL1        0.1414
     17 C          54.8220   95.7959   -3.4139 C.ar    1  UNL1        0.0855
     18 C          55.0244   95.6647   -4.8944 C.ar    1  UNL1        0.0398
     19 C          53.8480   95.7407   -5.8220 C.ar    1  UNL1        0.1000
     20 N          52.4691   95.9480   -5.2690 N.ar    1  UNL1       -0.2480
     21 C          52.2667   96.0792   -3.7884 C.ar    1  UNL1        0.0609
     22 C          50.8877   96.2864   -3.2355 C.3     1  UNL1        0.0521
     23 C          53.4430   96.0032   -2.8610 C.ar    1  UNL1        0.0339
     24 S          59.6088   91.5608    4.5783 S.O2    1  UNL1        0.0087
     25 O          60.7411   90.7738    5.1688 O.2     1  UNL1       -0.1686
     26 O          58.4766   92.3478    3.9877 O.2     1  UNL1       -0.1686
     27 C          59.0905   89.7404    6.3580 C.3     1  UNL1        0.0276
     28 C          58.6626   90.9368    5.5608 C.3     1  UNL1        0.1560
     29 O          63.3935   94.0570    0.6483 O.3     1  UNL1       -0.4702
     30 C          64.5188   94.9208    1.1356 C.3     1  UNL1        0.2599
     31 C          64.8266   94.9950    2.6018 C.3     1  UNL1        0.0566
     32 C          65.3364   95.7103    0.1568 C.3     1  UNL1        0.4340
     33 F          66.1540   96.5000   -0.8221 F       1  UNL1       -0.1664
     34 F          64.9943   94.7266   -0.9227 F       1  UNL1       -0.1664
     35 F          65.6785   96.6941    1.2361 F       1  UNL1       -0.1664
@<TRIPOS>BOND
     1    27    28    1
     2    28    24    1
     3    24    25    2
     4    24    26    2
     5    24     1    1
     6     1     2   ar
     7     2     3   ar
     8     3     4   ar
     9     4    29    1
    10    29    30    1
    11    30    31    1
    12    30    32    1
    13    32    33    1
    14    32    34    1
    15    32    35    1
    16     4     5   ar
    17     5     7    1
    18     7     8    2
    19     7     9   am
    20     9    10    1
    21    10    11    1
    22    11    12   ar
    23    12    13   ar
    24    13    17    1
    25    17    18   ar
    26    18    19   ar
    27    19    20   ar
    28    20    21   ar
    29    21    22    1
    30    21    23   ar
    31    13    14   ar
    32    14    15   ar
    33    15    16    1
    34     5     6   ar
    35     6     1   ar
    36    16     9    1
    37    15    11   ar
    38    23    17   ar
@<TRIPOS>MOLECULE
*****
 35 38 0 0 0
SMALL
GASTEIGER

@<TRIPOS>ATOM
      1 C          62.8267   82.2323   12.0694 C.ar    1  UNL1        0.1060
      2 C          62.3503   81.7645   13.4126 C.ar    1  UNL1        0.0215
      3 C          62.1102   82.7576   14.5109 C.ar    1  UNL1        0.0384
      4 C          62.3464   84.2185   14.2658 C.ar    1  UNL1        0.1432
      5 C          62.8228   84.6863   12.9226 C.ar    1  UNL1        0.0888
      6 C          63.0629   83.6932   11.8244 C.ar    1  UNL1        0.0259
      7 C          63.0589   86.1472   12.6776 C.2     1  UNL1        0.2525
      8 O          64.0095   86.9101   13.5519 O.2     1  UNL1       -0.2698
      9 N          62.3445   86.8451   11.5585 N.am    1  UNL1       -0.2660
     10 C          61.3703   86.2166   10.6067 C.3     1  UNL1        0.1236
     11 C          60.9026   87.2772    9.6547 C.ar    1  UNL1        0.0338
     12 C          60.0115   87.5443    8.4780 C.ar    1  UNL1        0.0990
     13 N          60.1459   88.9933    8.1141 N.ar    1  UNL1       -0.2286
     14 N          61.1202   89.6217    9.0659 N.ar    1  UNL1       -0.1680
     15 C          61.5878   88.5612   10.0180 C.ar    1  UNL1        0.0981
     16 C          62.4790   88.2941   11.1946 C.3     1  UNL1        0.1414
     17 C          59.4315   89.6912    6.9950 C.ar    1  UNL1        0.0855
     18 C          57.9556   89.4971    6.8108 C.ar    1  UNL1        0.0398
     19 C          57.2411   90.1950    5.6916 C.ar    1  UNL1        0.1000
     20 N          58.0027   91.0871    4.7567 N.ar    1  UNL1       -0.2480
     21 C          59.4787   91.2813    4.9409 C.ar    1  UNL1        0.0609
     22 C          60.2402   92.1734    4.0058 C.3     1  UNL1        0.0521
     23 C          60.1930   90.5833    6.0599 C.ar    1  UNL1        0.0339
     24 S          63.0668   81.2393   10.9711 S.O2    1  UNL1        0.0087
     25 O          63.5002   82.3503   10.0613 O.2     1  UNL1       -0.1686
     26 O          62.6334   80.1282   11.8810 O.2     1  UNL1       -0.1686
     27 C          62.6484   78.8995    9.9222 C.3     1  UNL1        0.0276
     28 C          63.3070   80.2462    9.8729 C.3     1  UNL1        0.1560
     29 O          62.1063   85.2116   15.3641 O.3     1  UNL1       -0.4702
     30 C          63.2490   85.6782   16.2163 C.3     1  UNL1        0.2599
     31 C          64.5863   85.0071   16.1107 C.3     1  UNL1        0.0566
     32 C          63.0545   86.8160   17.1742 C.3     1  UNL1        0.4340
     33 F          62.8599   87.9538   18.1323 F       1  UNL1       -0.1664
     34 F          63.7255   87.7453   16.2068 F       1  UNL1       -0.1664
     35 F          62.3834   85.8867   18.1417 F       1  UNL1       -0.1664
@<TRIPOS>BOND
     1    27    28    1
     2    28    24    1
     3    24    25    2
     4    24    26    2
     5    24     1    1
     6     1     2   ar
     7     2     3   ar
     8     3     4   ar
     9     4    29    1
    10    29    30    1
    11    30    31    1
    12    30    32    1
    13    32    33    1
    14    32    34    1
    15    32    35    1
    16     4     5   ar
    17     5     7    1
    18     7     8    2
    19     7     9   am
    20     9    10    1
    21    10    11    1
    22    11    12   ar
    23    12    13   ar
    24    13    17    1
    25    17    18   ar
    26    18    19   ar
    27    19    20   ar
    28    20    21   ar
    29    21    22    1
    30    21    23   ar
    31    13    14   ar
    32    14    15   ar
    33    15    16    1
    34     5     6   ar
    35     6     1   ar
    36    16     9    1
    37    15    11   ar
    38    23    17   ar
@<TRIPOS>MOLECULE
*****
 35 38 0 0 0
SMALL
GASTEIGER

@<TRIPOS>ATOM
      1 C          62.8656   90.6725   11.5681 C.ar    1  UNL1        0.1060
      2 C          63.7939   91.8501   11.6080 C.ar    1  UNL1        0.0215
      3 C          64.8380   91.9460   12.6807 C.ar    1  UNL1        0.0384
      4 C          64.9538   90.8643   13.7134 C.ar    1  UNL1        0.1432
      5 C          64.0256   89.6867   13.6735 C.ar    1  UNL1        0.0888
      6 C          62.9815   89.5908   12.6008 C.ar    1  UNL1        0.0259
      7 C          64.1415   88.6050   14.7063 C.2     1  UNL1        0.2525
      8 O          64.4913   88.9545   16.1224 O.2     1  UNL1       -0.2698
      9 N          63.9076   87.1738   14.3229 N.am    1  UNL1       -0.2660
     10 C          63.5525   86.6746   12.9537 C.3     1  UNL1        0.1236
     11 C          63.4132   85.1828   13.0260 C.ar    1  UNL1        0.0338
     12 C          63.1076   83.9523   12.2245 C.ar    1  UNL1        0.0990
     13 N          63.1876   82.7690   13.1430 N.ar    1  UNL1       -0.2286
     14 N          63.5427   83.2684   14.5122 N.ar    1  UNL1       -0.1680
     15 C          63.6820   84.7601   14.4399 C.ar    1  UNL1        0.0981
     16 C          63.9876   85.9906   15.2414 C.3     1  UNL1        0.1414
     17 C          62.9537   81.3379   12.7596 C.ar    1  UNL1        0.0855
     18 C          62.6405   80.3201   13.8160 C.ar    1  UNL1        0.0398
     19 C          62.4066   78.8888   13.4326 C.ar    1  UNL1        0.1000
     20 N          62.4859   78.4755   11.9929 N.ar    1  UNL1       -0.2480
     21 C          62.7991   79.4934   10.9365 C.ar    1  UNL1        0.0609
     22 C          62.8783   79.0800    9.4967 C.3     1  UNL1        0.0521
     23 C          63.0330   80.9245   11.3198 C.ar    1  UNL1        0.0339
     24 S          61.8215   90.5766   10.4955 S.O2    1  UNL1        0.0087
     25 O          62.7536   91.2445    9.5284 O.2     1  UNL1       -0.1686
     26 O          60.8894   89.9087   11.4625 O.2     1  UNL1       -0.1686
     27 C          60.2934   89.1366    8.9653 C.3     1  UNL1        0.0276
     28 C          60.7774   90.4806    9.4228 C.3     1  UNL1        0.1560
     29 O          65.9980   90.9602   14.7861 O.3     1  UNL1       -0.4702
     30 C          66.0347   92.1549   15.6923 C.3     1  UNL1        0.2599
     31 C          64.8799   92.4386   16.6066 C.3     1  UNL1        0.0566
     32 C          67.2262   93.0661   15.6843 C.3     1  UNL1        0.4340
     33 F          68.4178   93.9772   15.6763 F       1  UNL1       -0.1664
     34 F          66.5380   93.9575   14.6934 F       1  UNL1       -0.1664
     35 F          67.9145   92.1748   16.6751 F       1  UNL1       -0.1664
@<TRIPOS>BOND
     1    27    28    1
     2    28    24    1
     3    24    25    2
     4    24    26    2
     5    24     1    1
     6     1     2   ar
     7     2     3   ar
     8     3     4   ar
     9     4    29    1
    10    29    30    1
    11    30    31    1
    12    30    32    1
    13    32    33    1
    14    32    34    1
    15    32    35    1
    16     4     5   ar
    17     5     7    1
    18     7     8    2
    19     7     9   am
    20     9    10    1
    21    10    11    1
    22    11    12   ar
    23    12    13   ar
    24    13    17    1
    25    17    18   ar
    26    18    19   ar
    27    19    20   ar
    28    20    21   ar
    29    21    22    1
    30    21    23   ar
    31    13    14   ar
    32    14    15   ar
    33    15    16    1
    34     5     6   ar
    35     6     1   ar
    36    16     9    1
    37    15    11   ar
    38    23    17   ar
@<TRIPOS>MOLECULE
*****
 35 38 0 0 0
SMALL
GASTEIGER

@<TRIPOS>ATOM
      1 C          59.4833   89.1313    6.9851 C.ar    1  UNL1        0.1060
      2 C          59.8171   87.7588    6.4801 C.ar    1  UNL1        0.0215
      3 C          60.1970   86.6760    7.4462 C.ar    1  UNL1        0.0384
      4 C          60.2431   86.9658    8.9173 C.ar    1  UNL1        0.1432
      5 C          59.9094   88.3382    9.4222 C.ar    1  UNL1        0.0888
      6 C          59.5295   89.4210    8.4561 C.ar    1  UNL1        0.0259
      7 C          59.9555   88.6278   10.8933 C.2     1  UNL1        0.2525
      8 O          58.8333   88.1790   11.7816 O.2     1  UNL1       -0.2698
      9 N          61.1239   89.3663   11.4760 N.am    1  UNL1       -0.2660
     10 C          62.3133   89.8747   10.7165 C.3     1  UNL1        0.1236
     11 C          63.2325   90.5486   11.6916 C.ar    1  UNL1        0.0338
     12 C          64.5356   91.2794   11.8249 C.ar    1  UNL1        0.0990
     13 N          64.7198   91.6391   13.2695 N.ar    1  UNL1       -0.2286
     14 N          63.5304   91.1306   14.0290 N.ar    1  UNL1       -0.1680
     15 C          62.6112   90.4567   13.0538 C.ar    1  UNL1        0.0981
     16 C          61.3080   89.7260   12.9206 C.3     1  UNL1        0.1414
     17 C          65.8881   92.3775   13.8522 C.ar    1  UNL1        0.0855
     18 C          66.2035   93.7685   13.3878 C.ar    1  UNL1        0.0398
     19 C          67.3719   94.5070   13.9705 C.ar    1  UNL1        0.1000
     20 N          68.2249   93.8545   15.0177 N.ar    1  UNL1       -0.2480
     21 C          67.9095   92.4634   15.4822 C.ar    1  UNL1        0.0609
     22 C          68.7625   91.8109   16.5294 C.3     1  UNL1        0.0521
     23 C          66.7412   91.7250   14.8994 C.ar    1  UNL1        0.0339
     24 S          59.1034   90.2141    6.0191 S.O2    1  UNL1        0.0087
     25 O          60.5507   90.4244    5.6857 O.2     1  UNL1       -0.1686
     26 O          57.6562   90.0037    6.3525 O.2     1  UNL1       -0.1686
     27 C          57.2780   91.6295    4.8298 C.3     1  UNL1        0.0276
     28 C          58.7235   91.2969    5.0530 C.3     1  UNL1        0.1560
     29 O          60.6230   85.8830    9.8833 O.3     1  UNL1       -0.4702
     30 C          62.0673   85.5334   10.0880 C.3     1  UNL1        0.2599
     31 C          62.9797   85.3926    8.9058 C.3     1  UNL1        0.0566
     32 C          62.5991   85.3245   11.4749 C.3     1  UNL1        0.4340
     33 F          63.1310   85.1157   12.8619 F       1  UNL1       -0.1664
     34 F          62.3265   83.8541   11.3581 F       1  UNL1       -0.1664
     35 F          62.8718   86.7948   11.5917 F       1  UNL1       -0.1664
@<TRIPOS>BOND
     1    27    28    1
     2    28    24    1
     3    24    25    2
     4    24    26    2
     5    24     1    1
     6     1     2   ar
     7     2     3   ar
     8     3     4   ar
     9     4    29    1
    10    29    30    1
    11    30    31    1
    12    30    32    1
    13    32    33    1
    14    32    34    1
    15    32    35    1
    16     4     5   ar
    17     5     7    1
    18     7     8    2
    19     7     9   am
    20     9    10    1
    21    10    11    1
    22    11    12   ar
    23    12    13   ar
    24    13    17    1
    25    17    18   ar
    26    18    19   ar
    27    19    20   ar
    28    20    21   ar
    29    21    22    1
    30    21    23   ar
    31    13    14   ar
    32    14    15   ar
    33    15    16    1
    34     5     6   ar
    35     6     1   ar
    36    16     9    1
    37    15    11   ar
    38    23    17   ar
