@<TRIPOS>MOLECULE
*****
 48 52 0 0 0
SMALL
GASTEIGER

@<TRIPOS>ATOM
      1 C          63.6947   88.9822   13.7702 C.3     1  UNL1        0.2187
      2 C          64.7922   88.5055   14.6749 C.3     1  UNL1        0.0526
      3 C          65.0563   87.0365   14.8239 C.3     1  UNL1        0.0257
      4 C          64.2231   86.0442   14.0683 C.3     1  UNL1        0.0940
      5 N          63.1257   86.5209   13.1635 N.am    1  UNL1       -0.2720
      6 C          62.2925   85.5286   12.4079 C.2     1  UNL1        0.2506
      7 O          61.1950   86.0053   11.5032 O.2     1  UNL1       -0.2699
      8 C          62.8615   87.9899   13.0146 C.3     1  UNL1        0.1425
      9 N          65.6987   93.3903   11.3613 N.pl3   1  UNL1       -0.3017
     10 C          65.1846   92.0736   10.8593 C.3     1  UNL1        0.1124
     11 C          64.6880   91.0432   11.8296 C.3     1  UNL1        0.1149
     12 N          64.7055   91.3294   13.3020 N.am    1  UNL1       -0.2732
     13 C          64.2089   90.2989   14.2722 C.2     1  UNL1        0.2637
     14 O          64.2264   90.5851   15.7445 O.2     1  UNL1       -0.2711
     15 C          65.2196   92.6460   13.8040 C.3     1  UNL1        0.1149
     16 C          65.7162   93.6765   12.8336 C.3     1  UNL1        0.1124
     17 C          67.2159   94.0472    9.3572 C.ar    1  UNL1        0.1518
     18 C          67.7125   95.0777    8.3869 C.ar    1  UNL1        0.0382
     19 C          67.1884   96.4817    8.4503 C.ar    1  UNL1        0.0032
     20 C          66.1678   96.8553    9.4841 C.ar    1  UNL1        0.0015
     21 C          65.6712   95.8248   10.4544 C.ar    1  UNL1        0.0176
     22 C          66.1953   94.4208   10.3909 C.ar    1  UNL1        0.0824
     23 O          67.7400   92.6432    9.2937 O.3     1  UNL1       -0.4715
     24 C          68.8109   92.1986   10.2452 C.3     1  UNL1        0.2374
     25 C          68.4376   91.5371   11.5387 C.3     1  UNL1        0.1894
     26 C          68.5581   91.8564   14.1143 C.3     1  UNL1        0.1743
     27 O          69.2380   91.8081   12.7781 O.3     1  UNL1       -0.3471
     28 C          62.5566   84.0596   12.5569 C.ar    1  UNL1        0.0766
     29 C          62.2334   83.3665   13.8473 C.ar    1  UNL1        0.1033
     30 N          62.4975   81.8975   13.9963 N.ar    1  UNL1       -0.2422
     31 C          63.0850   81.1215   12.8550 C.ar    1  UNL1        0.0988
     32 C          63.4083   81.8146   11.5645 C.ar    1  UNL1        0.0247
     33 C          63.1441   83.2835   11.4155 C.ar    1  UNL1        0.0788
     34 C          63.4673   83.9766   10.1251 C.3     1  UNL1        0.4188
     35 F          63.7907   84.6698    8.8347 F       1  UNL1       -0.1659
     36 F          64.9293   83.7435   10.3661 F       1  UNL1       -0.1659
     37 F          62.0053   84.2099    9.8840 F       1  UNL1       -0.1659
     38 O          62.7759   89.9162   13.0399 O.3     1  UNL1       -0.4722
     39 C          62.0009   89.4291   11.8516 C.ar    1  UNL1        0.1390
     40 C          60.5012   89.4524   11.8734 C.ar    1  UNL1        0.0369
     41 C          59.7262   88.9653   10.6850 C.ar    1  UNL1        0.0070
     42 C          60.4508   88.4548    9.4750 C.ar    1  UNL1        0.0716
     43 C          61.9505   88.4314    9.4532 C.ar    1  UNL1        0.0070
     44 C          62.7255   88.9186   10.6415 C.ar    1  UNL1        0.0369
     45 C          59.6759   87.9677    8.2867 C.3     1  UNL1        0.4186
     46 F          58.9010   87.4804    7.0983 F       1  UNL1       -0.1659
     47 F          59.7651   86.5627    8.8046 F       1  UNL1       -0.1659
     48 F          59.5867   89.3725    7.7687 F       1  UNL1       -0.1659
@<TRIPOS>BOND
     1    26    27    1
     2    27    25    1
     3    25    24    1
     4    24    23    1
     5    23    17    1
     6    17    18   ar
     7    18    19   ar
     8    19    20   ar
     9    20    21   ar
    10    21    22   ar
    11    22     9    1
    12     9    10    1
    13    10    11    1
    14    11    12    1
    15    12    13   am
    16    13    14    2
    17    13     1    1
    18     1    38    1
    19    38    39    1
    20    39    40   ar
    21    40    41   ar
    22    41    42   ar
    23    42    45    1
    24    45    46    1
    25    45    47    1
    26    45    48    1
    27    42    43   ar
    28    43    44   ar
    29     1     2    1
    30     2     3    1
    31     3     4    1
    32     4     5    1
    33     5     6   am
    34     6     7    2
    35     6    28    1
    36    28    29   ar
    37    29    30   ar
    38    30    31   ar
    39    31    32   ar
    40    32    33   ar
    41    33    34    1
    42    34    35    1
    43    34    36    1
    44    34    37    1
    45     5     8    1
    46    12    15    1
    47    15    16    1
    48    22    17   ar
    49    16     9    1
    50     8     1    1
    51    44    39   ar
    52    33    28   ar
@<TRIPOS>MOLECULE
*****
 48 52 0 0 0
SMALL
GASTEIGER

@<TRIPOS>ATOM
      1 C          64.1971   90.5905   13.8731 C.3     1  UNL1        0.2187
      2 C          65.5664   90.3769   14.4469 C.3     1  UNL1        0.0526
      3 C          66.7591   91.0155   13.7990 C.3     1  UNL1        0.0257
      4 C          66.5824   91.8676   12.5773 C.3     1  UNL1        0.0940
      5 N          65.2130   92.0813   12.0035 N.am    1  UNL1       -0.2720
      6 C          65.0363   92.9334   10.7818 C.2     1  UNL1        0.2506
      7 O          63.6669   93.1470   10.2080 O.2     1  UNL1       -0.2699
      8 C          64.0204   91.4426   12.6514 C.3     1  UNL1        0.1425
      9 N          63.2958   85.2850   14.4105 N.pl3   1  UNL1       -0.3017
     10 C          63.6356   86.1697   13.2478 C.3     1  UNL1        0.1124
     11 C          63.8228   87.6432   13.4562 C.3     1  UNL1        0.1149
     12 N          63.6701   88.2322   14.8274 N.am    1  UNL1       -0.2732
     13 C          63.8573   89.7058   15.0358 C.2     1  UNL1        0.2637
     14 O          63.7046   90.2946   16.4068 O.2     1  UNL1       -0.2711
     15 C          63.3302   87.3475   15.9900 C.3     1  UNL1        0.1149
     16 C          63.1431   85.8738   15.7816 C.3     1  UNL1        0.1124
     17 C          63.8077   83.1193   13.0696 C.ar    1  UNL1        0.1518
     18 C          63.6205   81.6457   12.8612 C.ar    1  UNL1        0.0382
     19 C          62.7342   80.8641   13.7852 C.ar    1  UNL1        0.0032
     20 C          62.0351   81.5562   14.9176 C.ar    1  UNL1        0.0015
     21 C          62.2223   83.0297   15.1260 C.ar    1  UNL1        0.0176
     22 C          63.1086   83.8113   14.2020 C.ar    1  UNL1        0.0824
     23 O          64.6939   83.9008   12.1457 O.3     1  UNL1       -0.4715
     24 C          64.5880   83.7065   10.6621 C.3     1  UNL1        0.2374
     25 C          63.3297   84.0935    9.9430 C.3     1  UNL1        0.1894
     26 C          62.6822   84.9400    7.5736 C.3     1  UNL1        0.1743
     27 O          63.3657   85.1615    8.8903 O.3     1  UNL1       -0.3471
     28 C          66.2289   93.5720   10.1339 C.ar    1  UNL1        0.0766
     29 C          67.3082   92.7159    9.5404 C.ar    1  UNL1        0.1033
     30 N          68.5009   93.3545    8.8925 N.ar    1  UNL1       -0.2422
     31 C          68.6142   94.8492    8.8380 C.ar    1  UNL1        0.0988
     32 C          67.5349   95.7054    9.4315 C.ar    1  UNL1        0.0247
     33 C          66.3423   95.0668   10.0794 C.ar    1  UNL1        0.0788
     34 C          65.2631   95.9229   10.6729 C.3     1  UNL1        0.4188
     35 F          64.1837   96.7790   11.2665 F       1  UNL1       -0.1659
     36 F          65.8894   95.7734   12.0276 F       1  UNL1       -0.1659
     37 F          64.6366   96.0724    9.3182 F       1  UNL1       -0.1659
     38 O          62.7097   90.4968   13.7031 O.3     1  UNL1       -0.4722
     39 C          62.1337   89.9044   12.4512 C.ar    1  UNL1        0.1390
     40 C          63.0446   89.4337   11.3563 C.ar    1  UNL1        0.0369
     41 C          62.4686   88.8413   10.1043 C.ar    1  UNL1        0.0070
     42 C          60.9819   88.7197    9.9472 C.ar    1  UNL1        0.0716
     43 C          60.0710   89.1905   11.0421 C.ar    1  UNL1        0.0070
     44 C          60.6470   89.7828   12.2941 C.ar    1  UNL1        0.0369
     45 C          60.4059   88.1273    8.6953 C.3     1  UNL1        0.4186
     46 F          59.8298   87.5351    7.4433 F       1  UNL1       -0.1659
     47 F          60.3008   89.4981    8.0952 F       1  UNL1       -0.1659
     48 F          60.5109   86.7567    9.2954 F       1  UNL1       -0.1659
@<TRIPOS>BOND
     1    26    27    1
     2    27    25    1
     3    25    24    1
     4    24    23    1
     5    23    17    1
     6    17    18   ar
     7    18    19   ar
     8    19    20   ar
     9    20    21   ar
    10    21    22   ar
    11    22     9    1
    12     9    10    1
    13    10    11    1
    14    11    12    1
    15    12    13   am
    16    13    14    2
    17    13     1    1
    18     1    38    1
    19    38    39    1
    20    39    40   ar
    21    40    41   ar
    22    41    42   ar
    23    42    45    1
    24    45    46    1
    25    45    47    1
    26    45    48    1
    27    42    43   ar
    28    43    44   ar
    29     1     2    1
    30     2     3    1
    31     3     4    1
    32     4     5    1
    33     5     6   am
    34     6     7    2
    35     6    28    1
    36    28    29   ar
    37    29    30   ar
    38    30    31   ar
    39    31    32   ar
    40    32    33   ar
    41    33    34    1
    42    34    35    1
    43    34    36    1
    44    34    37    1
    45     5     8    1
    46    12    15    1
    47    15    16    1
    48    22    17   ar
    49    16     9    1
    50     8     1    1
    51    44    39   ar
    52    33    28   ar
