@<TRIPOS>MOLECULE
*****
 27 30 0 0 0
SMALL
GASTEIGER

@<TRIPOS>ATOM
      1 C          63.1628   84.3309   13.9509 C.ar    1  UNL1        0.0070
      2 C          63.9794   84.9134   15.0662 C.ar    1  UNL1       -0.0017
      3 C          64.3262   86.3726   15.0587 C.ar    1  UNL1       -0.0005
      4 C          63.8565   87.2495   13.9360 C.ar    1  UNL1       -0.0022
      5 C          64.2034   88.7088   13.9286 C.ar    1  UNL1        0.0021
      6 C          63.7337   89.5857   12.8058 C.ar    1  UNL1        0.0512
      7 C          62.9170   89.0031   11.6905 C.ar    1  UNL1        0.0043
      8 C          62.5702   87.5438   11.6980 C.ar    1  UNL1        0.0001
      9 C          63.0399   86.6670   12.8207 C.ar    1  UNL1       -0.0005
     10 C          62.6931   85.2077   12.8282 C.ar    1  UNL1       -0.0017
     11 C          64.2274   90.9778   13.0672 C.2     1  UNL1        0.2491
     12 O          63.9882   92.1759   12.1970 O.2     1  UNL1       -0.2699
     13 N          65.0022   90.9613   14.3514 N.am    1  UNL1       -0.2702
     14 C          65.6740   92.1401   14.9910 C.3     1  UNL1        0.1155
     15 C          64.9874   89.5591   14.8838 C.3     1  UNL1        0.1206
     16 C          62.8159   82.8715   13.9584 C.3     1  UNL1        0.1410
     17 O          62.2476   83.0136   15.3392 O.3     1  UNL1       -0.3771
     18 H          61.2947   83.1851   15.2806 H       1  UNL1        0.2112
     19 C          63.3841   82.7295   12.5775 C.ar    1  UNL1        0.0825
     20 C          64.7922   83.0438   12.1668 C.ar    1  UNL1        0.1157
     21 N          64.9224   82.7567   10.7003 N.ar    1  UNL1       -0.2228
     22 C          63.5948   82.2649   10.2046 C.ar    1  UNL1        0.1749
     23 N          62.6441   82.2480   11.3647 N.ar    1  UNL1       -0.3361
     24 H          61.7002   81.9699   11.3353 H       1  UNL1        0.1673
     25 C          61.0364   80.9824   14.0794 C.3     1  UNL1        0.0031
     26 C          62.4690   81.4122   13.9657 C.3     1  UNL1        0.0340
     27 C          63.5548   80.3827   13.8595 C.3     1  UNL1        0.0031
@<TRIPOS>BOND
     1    25    26    1
     2    26    27    1
     3    26    16    1
     4    16    17    1
     5    16     1    1
     6     1     2   ar
     7     2     3   ar
     8     3     4   ar
     9     4     5   ar
    10     5     6   ar
    11     6     7   ar
    12     7     8   ar
    13     8     9   ar
    14     9    10   ar
    15     6    11    1
    16    11    12    2
    17    11    13   am
    18    13    14    1
    19    13    15    1
    20    16    19    1
    21    19    20   ar
    22    20    21   ar
    23    21    22   ar
    24    22    23   ar
    25    10     1   ar
    26    23    19   ar
    27     9     4   ar
    28    15     5    1
    29    17    18    1
    30    23    24    1
@<TRIPOS>MOLECULE
*****
 27 30 0 0 0
SMALL
GASTEIGER

@<TRIPOS>ATOM
      1 C          61.7240   89.4903   10.4189 C.ar    1  UNL1        0.0070
      2 C          61.7102   89.1263   11.8740 C.ar    1  UNL1       -0.0017
      3 C          62.6651   89.7892   12.8220 C.ar    1  UNL1       -0.0005
      4 C          63.6338   90.8162   12.3149 C.ar    1  UNL1       -0.0022
      5 C          64.5887   91.4791   13.2629 C.ar    1  UNL1        0.0021
      6 C          65.5573   92.5060   12.7558 C.ar    1  UNL1        0.0512
      7 C          65.5711   92.8700   11.3006 C.ar    1  UNL1        0.0043
      8 C          64.6162   92.2070   10.3527 C.ar    1  UNL1        0.0001
      9 C          63.6475   91.1801   10.8598 C.ar    1  UNL1       -0.0005
     10 C          62.6927   90.5172    9.9118 C.ar    1  UNL1       -0.0017
     11 C          66.3734   92.9875   13.9186 C.2     1  UNL1        0.2491
     12 O          67.4626   94.0175   13.8650 O.2     1  UNL1       -0.2699
     13 N          65.9091   92.2582   15.1443 N.am    1  UNL1       -0.2702
     14 C          66.4525   92.4308   16.5318 C.3     1  UNL1        0.1155
     15 C          64.8061   91.3260   14.7391 C.3     1  UNL1        0.1206
     16 C          60.7691   88.8273    9.4709 C.3     1  UNL1        0.1410
     17 O          60.1684   90.1620    9.1425 O.3     1  UNL1       -0.3771
     18 H          60.6068   90.5300    8.3594 H       1  UNL1        0.2112
     19 C          61.3698   87.4927    9.7992 C.ar    1  UNL1        0.0825
     20 C          62.3417   86.7299    8.9486 C.ar    1  UNL1        0.1157
     21 N          62.6766   85.4522    9.6595 N.ar    1  UNL1       -0.2228
     22 C          61.9117   85.4253   10.9496 C.ar    1  UNL1        0.1749
     23 N          61.1040   86.6864   11.0359 N.ar    1  UNL1       -0.3361
     24 H          60.5047   86.9403   11.7746 H       1  UNL1        0.1673
     25 C          59.5004   88.8058    7.2038 C.3     1  UNL1        0.0031
     26 C          59.8143   88.1644    8.5229 C.3     1  UNL1        0.0340
     27 C          59.1732   86.8600    8.8940 C.3     1  UNL1        0.0031
@<TRIPOS>BOND
     1    25    26    1
     2    26    27    1
     3    26    16    1
     4    16    17    1
     5    16     1    1
     6     1     2   ar
     7     2     3   ar
     8     3     4   ar
     9     4     5   ar
    10     5     6   ar
    11     6     7   ar
    12     7     8   ar
    13     8     9   ar
    14     9    10   ar
    15     6    11    1
    16    11    12    2
    17    11    13   am
    18    13    14    1
    19    13    15    1
    20    16    19    1
    21    19    20   ar
    22    20    21   ar
    23    21    22   ar
    24    22    23   ar
    25    10     1   ar
    26    23    19   ar
    27     9     4   ar
    28    15     5    1
    29    17    18    1
    30    23    24    1
@<TRIPOS>MOLECULE
*****
 27 30 0 0 0
SMALL
GASTEIGER

@<TRIPOS>ATOM
      1 C          62.5021   89.2477   10.9011 C.ar    1  UNL1        0.0070
      2 C          62.8629   88.7052   12.2522 C.ar    1  UNL1       -0.0017
      3 C          63.8128   89.4599   13.1342 C.ar    1  UNL1       -0.0005
      4 C          64.4020   90.7571   12.6651 C.ar    1  UNL1       -0.0022
      5 C          65.3520   91.5119   13.5472 C.ar    1  UNL1        0.0021
      6 C          65.9412   92.8091   13.0781 C.ar    1  UNL1        0.0512
      7 C          65.5804   93.3516   11.7270 C.ar    1  UNL1        0.0043
      8 C          64.6305   92.5969   10.8450 C.ar    1  UNL1        0.0001
      9 C          64.0413   91.2997   11.3141 C.ar    1  UNL1       -0.0005
     10 C          63.0913   90.5450   10.4321 C.ar    1  UNL1       -0.0017
     11 C          66.8430   93.3264   14.1594 C.2     1  UNL1        0.2491
     12 O          67.6372   94.5981   14.1117 O.2     1  UNL1       -0.2699
     13 N          66.8111   92.3490   15.2967 N.am    1  UNL1       -0.2702
     14 C          67.5679   92.4715   16.5860 C.3     1  UNL1        0.1155
     15 C          65.8897   91.2275   14.9184 C.3     1  UNL1        0.1206
     16 C          61.5521   88.4930   10.0191 C.3     1  UNL1        0.1410
     17 O          62.7080   87.9830    9.2105 O.3     1  UNL1       -0.3771
     18 H          62.9885   87.1209    9.5555 H       1  UNL1        0.2112
     19 C          60.3963   89.0031   10.8276 C.ar    1  UNL1        0.0825
     20 C          59.8697   90.4076   10.8245 C.ar    1  UNL1        0.1157
     21 N          58.7119   90.4707   11.7763 N.ar    1  UNL1       -0.2228
     22 C          58.5230   89.1051   12.3676 C.ar    1  UNL1        0.1749
     23 N          59.5640   88.1981   11.7813 N.ar    1  UNL1       -0.3361
     24 H          59.6805   87.2423   11.9864 H       1  UNL1        0.1673
     25 C          59.6996   88.4818    8.1976 C.3     1  UNL1        0.0031
     26 C          60.6022   87.7384    9.1371 C.3     1  UNL1        0.0340
     27 C          60.5548   86.2402    9.1945 C.3     1  UNL1        0.0031
@<TRIPOS>BOND
     1    25    26    1
     2    26    27    1
     3    26    16    1
     4    16    17    1
     5    16     1    1
     6     1     2   ar
     7     2     3   ar
     8     3     4   ar
     9     4     5   ar
    10     5     6   ar
    11     6     7   ar
    12     7     8   ar
    13     8     9   ar
    14     9    10   ar
    15     6    11    1
    16    11    12    2
    17    11    13   am
    18    13    14    1
    19    13    15    1
    20    16    19    1
    21    19    20   ar
    22    20    21   ar
    23    21    22   ar
    24    22    23   ar
    25    10     1   ar
    26    23    19   ar
    27     9     4   ar
    28    15     5    1
    29    17    18    1
    30    23    24    1
@<TRIPOS>MOLECULE
*****
 27 30 0 0 0
SMALL
GASTEIGER

@<TRIPOS>ATOM
      1 C          62.7927   84.2719   13.2785 C.ar    1  UNL1        0.0070
      2 C          62.2945   84.7967   11.9646 C.ar    1  UNL1       -0.0017
      3 C          62.4719   86.2457   11.6200 C.ar    1  UNL1       -0.0005
      4 C          63.1476   87.1699   12.5892 C.ar    1  UNL1       -0.0022
      5 C          63.3250   88.6190   12.2445 C.ar    1  UNL1        0.0021
      6 C          64.0007   89.5432   13.2138 C.ar    1  UNL1        0.0512
      7 C          64.4989   89.0182   14.5277 C.ar    1  UNL1        0.0043
      8 C          64.3215   87.5692   14.8723 C.ar    1  UNL1        0.0001
      9 C          63.6458   86.6450   13.9031 C.ar    1  UNL1       -0.0005
     10 C          63.4684   85.1960   14.2477 C.ar    1  UNL1       -0.0017
     11 C          64.0333   90.9126   12.6026 C.2     1  UNL1        0.2491
     12 O          64.6187   92.1437   13.2285 O.2     1  UNL1       -0.2699
     13 N          63.3778   90.8348   11.2557 N.am    1  UNL1       -0.2702
     14 C          63.1926   91.9744   10.2981 C.3     1  UNL1        0.1155
     15 C          62.9401   89.4173   11.0344 C.3     1  UNL1        0.1206
     16 C          62.6153   82.8228   13.6232 C.3     1  UNL1        0.1410
     17 O          62.0062   83.2101   14.9380 O.3     1  UNL1       -0.3771
     18 H          61.0413   83.2516   14.8477 H       1  UNL1        0.2112
     19 C          63.2243   82.4355   12.3083 C.ar    1  UNL1        0.0825
     20 C          64.5223   82.9436   11.7540 C.ar    1  UNL1        0.1157
     21 N          64.7426   82.2942   10.4199 N.ar    1  UNL1       -0.2228
     22 C          63.5807   81.3847   10.1496 C.ar    1  UNL1        0.1749
     23 N          62.6424   81.4720   11.3167 N.ar    1  UNL1       -0.3361
     24 H          61.7937   80.9828   11.4146 H       1  UNL1        0.1673
     25 C          63.6389   80.4951   14.1561 C.3     1  UNL1        0.0031
     26 C          62.4379   81.3737   13.9678 C.3     1  UNL1        0.0340
     27 C          61.0594   80.8033   14.1241 C.3     1  UNL1        0.0031
@<TRIPOS>BOND
     1    25    26    1
     2    26    27    1
     3    26    16    1
     4    16    17    1
     5    16     1    1
     6     1     2   ar
     7     2     3   ar
     8     3     4   ar
     9     4     5   ar
    10     5     6   ar
    11     6     7   ar
    12     7     8   ar
    13     8     9   ar
    14     9    10   ar
    15     6    11    1
    16    11    12    2
    17    11    13   am
    18    13    14    1
    19    13    15    1
    20    16    19    1
    21    19    20   ar
    22    20    21   ar
    23    21    22   ar
    24    22    23   ar
    25    10     1   ar
    26    23    19   ar
    27     9     4   ar
    28    15     5    1
    29    17    18    1
    30    23    24    1
@<TRIPOS>MOLECULE
*****
 27 30 0 0 0
SMALL
GASTEIGER

@<TRIPOS>ATOM
      1 C          63.1514   84.3701   14.3893 C.ar    1  UNL1        0.0070
      2 C          63.7410   85.1177   13.2303 C.ar    1  UNL1       -0.0017
      3 C          64.0335   86.5837   13.3542 C.ar    1  UNL1       -0.0005
      4 C          63.7366   87.3019   14.6371 C.ar    1  UNL1       -0.0022
      5 C          64.0292   88.7679   14.7610 C.ar    1  UNL1        0.0021
      6 C          63.7323   89.4862   16.0439 C.ar    1  UNL1        0.0512
      7 C          63.1427   88.7384   17.2030 C.ar    1  UNL1        0.0043
      8 C          62.8501   87.2725   17.0791 C.ar    1  UNL1        0.0001
      9 C          63.1471   86.5543   15.7961 C.ar    1  UNL1       -0.0005
     10 C          62.8545   85.0883   15.6722 C.ar    1  UNL1       -0.0017
     11 C          64.1249   90.9237   15.8719 C.2     1  UNL1        0.2491
     12 O          63.9999   92.0017   16.9074 O.2     1  UNL1       -0.2699
     13 N          64.6645   91.0937   14.4828 N.am    1  UNL1       -0.2702
     14 C          65.1738   92.3718   13.8851 C.3     1  UNL1        0.1155
     15 C          64.6053   89.7615   13.7961 C.3     1  UNL1        0.1206
     16 C          62.8588   82.9041   14.2654 C.3     1  UNL1        0.1410
     17 O          62.3920   82.8768   15.6906 O.3     1  UNL1       -0.3771
     18 H          61.4318   83.0116   15.7190 H       1  UNL1        0.2112
     19 C          63.3257   82.9313   12.8402 C.ar    1  UNL1        0.0825
     20 C          62.4582   83.1242   11.6318 C.ar    1  UNL1        0.1157
     21 N          63.3384   83.0826   10.4178 N.ar    1  UNL1       -0.2228
     22 C          64.7499   82.8640   10.8761 C.ar    1  UNL1        0.1749
     23 N          64.7420   82.7705   12.3731 N.ar    1  UNL1       -0.3361
     24 H          65.5284   82.6285   12.9482 H       1  UNL1        0.1673
     25 C          63.6926   80.4580   13.9981 C.3     1  UNL1        0.0031
     26 C          62.5662   81.4381   14.1415 C.3     1  UNL1        0.0340
     27 C          61.1472   80.9523   14.1611 C.3     1  UNL1        0.0031
@<TRIPOS>BOND
     1    25    26    1
     2    26    27    1
     3    26    16    1
     4    16    17    1
     5    16     1    1
     6     1     2   ar
     7     2     3   ar
     8     3     4   ar
     9     4     5   ar
    10     5     6   ar
    11     6     7   ar
    12     7     8   ar
    13     8     9   ar
    14     9    10   ar
    15     6    11    1
    16    11    12    2
    17    11    13   am
    18    13    14    1
    19    13    15    1
    20    16    19    1
    21    19    20   ar
    22    20    21   ar
    23    21    22   ar
    24    22    23   ar
    25    10     1   ar
    26    23    19   ar
    27     9     4   ar
    28    15     5    1
    29    17    18    1
    30    23    24    1
@<TRIPOS>MOLECULE
*****
 27 30 0 0 0
SMALL
GASTEIGER

@<TRIPOS>ATOM
      1 C          63.6786   88.0039   13.2697 C.ar    1  UNL1        0.0070
      2 C          63.1298   87.4080   12.0073 C.ar    1  UNL1       -0.0017
      3 C          62.9952   85.9198   11.8772 C.ar    1  UNL1       -0.0005
      4 C          63.4094   85.0274   13.0095 C.ar    1  UNL1       -0.0022
      5 C          63.2748   83.5391   12.8794 C.ar    1  UNL1        0.0021
      6 C          63.6890   82.6467   14.0117 C.ar    1  UNL1        0.0512
      7 C          64.2378   83.2427   15.2742 C.ar    1  UNL1        0.0043
      8 C          64.3724   84.7310   15.4042 C.ar    1  UNL1        0.0001
      9 C          63.9582   85.6233   14.2719 C.ar    1  UNL1       -0.0005
     10 C          64.0928   87.1115   14.4020 C.ar    1  UNL1       -0.0017
     11 C          63.4418   81.2266   13.5970 C.2     1  UNL1        0.2491
     12 O          63.7138   80.0061   14.4254 O.2     1  UNL1       -0.2699
     13 N          62.8748   81.2412   12.2084 N.am    1  UNL1       -0.2702
     14 C          62.4803   80.0379   11.4044 C.3     1  UNL1        0.1155
     15 C          62.7716   82.6704   11.7649 C.3     1  UNL1        0.1206
     16 C          63.8131   89.4922   13.3998 C.3     1  UNL1        0.1410
     17 O          64.9642   89.3057   14.3433 O.3     1  UNL1       -0.3771
     18 H          65.7967   89.3275   13.8460 H       1  UNL1        0.2112
     19 C          62.6621   89.6788   12.4563 C.ar    1  UNL1        0.0825
     20 C          62.7555   89.7956   10.9638 C.ar    1  UNL1        0.1157
     21 N          61.3665   89.9703   10.4247 N.ar    1  UNL1       -0.2228
     22 C          60.4148   89.9614   11.5841 C.ar    1  UNL1        0.1749
     23 N          61.2155   89.7812   12.8397 N.ar    1  UNL1       -0.3361
     24 H          60.8548   89.7378   13.7547 H       1  UNL1        0.1673
     25 C          63.8324   91.6290   14.8775 C.3     1  UNL1        0.0031
     26 C          63.9477   90.9805   13.5299 C.3     1  UNL1        0.0340
     27 C          64.1975   91.8203   12.3123 C.3     1  UNL1        0.0031
@<TRIPOS>BOND
     1    25    26    1
     2    26    27    1
     3    26    16    1
     4    16    17    1
     5    16     1    1
     6     1     2   ar
     7     2     3   ar
     8     3     4   ar
     9     4     5   ar
    10     5     6   ar
    11     6     7   ar
    12     7     8   ar
    13     8     9   ar
    14     9    10   ar
    15     6    11    1
    16    11    12    2
    17    11    13   am
    18    13    14    1
    19    13    15    1
    20    16    19    1
    21    19    20   ar
    22    20    21   ar
    23    21    22   ar
    24    22    23   ar
    25    10     1   ar
    26    23    19   ar
    27     9     4   ar
    28    15     5    1
    29    17    18    1
    30    23    24    1
@<TRIPOS>MOLECULE
*****
 27 30 0 0 0
SMALL
GASTEIGER

@<TRIPOS>ATOM
      1 C          62.3197   87.1883   11.0028 C.ar    1  UNL1        0.0070
      2 C          62.4434   86.3529    9.7631 C.ar    1  UNL1       -0.0017
      3 C          62.5750   84.8627    9.8730 C.ar    1  UNL1       -0.0005
      4 C          62.5829   84.2080   11.2225 C.ar    1  UNL1       -0.0022
      5 C          62.7146   82.7178   11.3324 C.ar    1  UNL1        0.0021
      6 C          62.7225   82.0630   12.6819 C.ar    1  UNL1        0.0512
      7 C          62.5987   82.8985   13.9216 C.ar    1  UNL1        0.0043
      8 C          62.4671   84.3886   13.8117 C.ar    1  UNL1        0.0001
      9 C          62.4592   85.0434   12.4622 C.ar    1  UNL1       -0.0005
     10 C          62.3276   86.5335   12.3523 C.ar    1  UNL1       -0.0017
     11 C          62.8651   80.5837   12.4785 C.2     1  UNL1        0.2491
     12 O          62.9182   79.5461   13.5605 O.2     1  UNL1       -0.2699
     13 N          62.9454   80.3243   11.0034 N.am    1  UNL1       -0.2702
     14 C          63.0928   78.9816   10.3511 C.3     1  UNL1        0.1155
     15 C          62.8524   81.6431   10.2950 C.3     1  UNL1        0.1206
     16 C          62.1881   88.6785   10.8930 C.3     1  UNL1        0.1410
     17 O          63.2911   88.8498   11.8948 O.3     1  UNL1       -0.3771
     18 H          64.1377   88.9440   11.4307 H       1  UNL1        0.2112
     19 C          61.0850   88.5072    9.8911 C.ar    1  UNL1        0.0825
     20 C          59.9409   87.5427    9.9956 C.ar    1  UNL1        0.1157
     21 N          59.0810   87.7097    8.7778 N.ar    1  UNL1       -0.2228
     22 C          59.6938   88.7774    7.9206 C.ar    1  UNL1        0.1749
     23 N          60.9323   89.2702    8.6086 N.ar    1  UNL1       -0.3361
     24 H          61.5385   89.9713    8.2768 H       1  UNL1        0.1673
     25 C          60.7779   90.8405   11.1881 C.3     1  UNL1        0.0031
     26 C          62.0564   90.1686   10.7831 C.3     1  UNL1        0.0340
     27 C          63.2033   90.9870   10.2682 C.3     1  UNL1        0.0031
@<TRIPOS>BOND
     1    25    26    1
     2    26    27    1
     3    26    16    1
     4    16    17    1
     5    16     1    1
     6     1     2   ar
     7     2     3   ar
     8     3     4   ar
     9     4     5   ar
    10     5     6   ar
    11     6     7   ar
    12     7     8   ar
    13     8     9   ar
    14     9    10   ar
    15     6    11    1
    16    11    12    2
    17    11    13   am
    18    13    14    1
    19    13    15    1
    20    16    19    1
    21    19    20   ar
    22    20    21   ar
    23    21    22   ar
    24    22    23   ar
    25    10     1   ar
    26    23    19   ar
    27     9     4   ar
    28    15     5    1
    29    17    18    1
    30    23    24    1
@<TRIPOS>MOLECULE
*****
 27 30 0 0 0
SMALL
GASTEIGER

@<TRIPOS>ATOM
      1 C          62.5200   87.6356   11.4798 C.ar    1  UNL1        0.0070
      2 C          61.9160   86.6159   10.5604 C.ar    1  UNL1       -0.0017
      3 C          62.0635   85.1539   10.8614 C.ar    1  UNL1       -0.0005
      4 C          62.8151   84.7116   12.0819 C.ar    1  UNL1       -0.0022
      5 C          62.9626   83.2494   12.3829 C.ar    1  UNL1        0.0021
      6 C          63.7142   82.8071   13.6034 C.ar    1  UNL1        0.0512
      7 C          64.3182   83.8269   14.5228 C.ar    1  UNL1        0.0043
      8 C          64.1706   85.2889   14.2218 C.ar    1  UNL1        0.0001
      9 C          63.4191   85.7312   13.0013 C.ar    1  UNL1       -0.0005
     10 C          63.2715   87.1933   12.7002 C.ar    1  UNL1       -0.0017
     11 C          63.6957   81.3077   13.6410 C.2     1  UNL1        0.2491
     12 O          64.3291   80.4443   14.6914 O.2     1  UNL1       -0.2699
     13 N          62.9329   80.8234   12.4438 N.am    1  UNL1       -0.2702
     14 C          62.6693   79.3905   12.0868 C.3     1  UNL1        0.1155
     15 C          62.4797   82.0234   11.6662 C.3     1  UNL1        0.1206
     16 C          62.3724   89.0977   11.1787 C.3     1  UNL1        0.1410
     17 O          61.8727   88.7643    9.8043 O.3     1  UNL1       -0.3771
     18 H          60.9036   88.7231    9.8138 H       1  UNL1        0.2112
     19 C          62.8722   89.4311   12.5532 C.ar    1  UNL1        0.0825
     20 C          64.3076   89.4529   12.9882 C.ar    1  UNL1        0.1157
     21 N          64.3468   89.8364   14.4379 N.ar    1  UNL1       -0.2228
     22 C          62.9356   90.0517   14.8987 C.ar    1  UNL1        0.1749
     23 N          62.0243   89.8012   13.7340 N.ar    1  UNL1       -0.3361
     24 H          61.0421   89.8679   13.7429 H       1  UNL1        0.1673
     25 C          63.4327   91.3804   10.5345 C.3     1  UNL1        0.0031
     26 C          62.2249   90.5597   10.8778 C.3     1  UNL1        0.0340
     27 C          60.8696   91.2012   10.9200 C.3     1  UNL1        0.0031
@<TRIPOS>BOND
     1    25    26    1
     2    26    27    1
     3    26    16    1
     4    16    17    1
     5    16     1    1
     6     1     2   ar
     7     2     3   ar
     8     3     4   ar
     9     4     5   ar
    10     5     6   ar
    11     6     7   ar
    12     7     8   ar
    13     8     9   ar
    14     9    10   ar
    15     6    11    1
    16    11    12    2
    17    11    13   am
    18    13    14    1
    19    13    15    1
    20    16    19    1
    21    19    20   ar
    22    20    21   ar
    23    21    22   ar
    24    22    23   ar
    25    10     1   ar
    26    23    19   ar
    27     9     4   ar
    28    15     5    1
    29    17    18    1
    30    23    24    1
@<TRIPOS>MOLECULE
*****
 27 30 0 0 0
SMALL
GASTEIGER

@<TRIPOS>ATOM
      1 C          45.1454   74.7213   17.4459 C.ar    1  UNL1        0.0070
      2 C          43.8567   75.4757   17.3043 C.ar    1  UNL1       -0.0017
      3 C          43.8147   76.9482   17.5870 C.ar    1  UNL1       -0.0005
      4 C          45.0614   77.6663   18.0113 C.ar    1  UNL1       -0.0022
      5 C          45.0193   79.1389   18.2939 C.ar    1  UNL1        0.0021
      6 C          46.2660   79.8570   18.7182 C.ar    1  UNL1        0.0512
      7 C          47.5548   79.1026   18.8598 C.ar    1  UNL1        0.0043
      8 C          47.5968   77.6301   18.5772 C.ar    1  UNL1        0.0001
      9 C          46.3501   76.9120   18.1529 C.ar    1  UNL1       -0.0005
     10 C          46.3921   75.4395   17.8702 C.ar    1  UNL1       -0.0017
     11 C          45.9205   81.3017   18.9268 C.2     1  UNL1        0.2491
     12 O          46.8688   82.3820   19.3555 O.2     1  UNL1       -0.2699
     13 N          44.4604   81.4764   18.6314 N.am    1  UNL1       -0.2702
     14 C          43.6921   82.7621   18.7129 C.3     1  UNL1        0.1155
     15 C          43.9034   80.1398   18.2403 C.3     1  UNL1        0.1206
     16 C          45.1875   73.2488   17.1632 C.3     1  UNL1        0.1410
     17 O          45.4652   73.5343   15.7171 O.3     1  UNL1       -0.3771
     18 H          46.4234   73.5364   15.5662 H       1  UNL1        0.2112
     19 C          44.9097   72.9633   18.6093 C.ar    1  UNL1        0.0825
     20 C          45.8557   73.1920   19.7507 C.ar    1  UNL1        0.1157
     21 N          45.1678   72.7690   21.0149 N.ar    1  UNL1       -0.2228
     22 C          43.7966   72.2788   20.6547 C.ar    1  UNL1        0.1749
     23 N          43.6371   72.3989   19.1681 N.ar    1  UNL1       -0.3361
     24 H          42.8375   72.1508   18.6499 H       1  UNL1        0.1673
     25 C          46.3421   70.9374   17.4360 C.3     1  UNL1        0.0031
     26 C          45.2295   71.7763   16.8806 C.3     1  UNL1        0.0340
     27 C          44.1589   71.1425   16.0425 C.3     1  UNL1        0.0031
@<TRIPOS>BOND
     1    25    26    1
     2    26    27    1
     3    26    16    1
     4    16    17    1
     5    16     1    1
     6     1     2   ar
     7     2     3   ar
     8     3     4   ar
     9     4     5   ar
    10     5     6   ar
    11     6     7   ar
    12     7     8   ar
    13     8     9   ar
    14     9    10   ar
    15     6    11    1
    16    11    12    2
    17    11    13   am
    18    13    14    1
    19    13    15    1
    20    16    19    1
    21    19    20   ar
    22    20    21   ar
    23    21    22   ar
    24    22    23   ar
    25    10     1   ar
    26    23    19   ar
    27     9     4   ar
    28    15     5    1
    29    17    18    1
    30    23    24    1
