@<TRIPOS>MOLECULE
*****
 34 38 0 0 0
SMALL
GASTEIGER

@<TRIPOS>ATOM
      1 C          58.6188   87.3818    7.4350 C.3     1  UNL1        0.0557
      2 C          59.8470   87.0505    8.2297 C.ar    1  UNL1        0.0995
      3 N          60.5832   85.7437    8.2114 N.ar    1  UNL1       -0.1705
      4 N          61.7459   85.8535    9.1527 N.ar    1  UNL1       -0.2308
      5 C          61.7283   87.2281    9.7528 C.ar    1  UNL1        0.1800
      6 N          62.6293   87.9017   10.7449 N.ar    1  UNL1       -0.2090
      7 C          62.3568   89.3151   11.1667 C.ar    1  UNL1        0.1527
      8 C          61.1832   90.0550   10.5962 C.ar    1  UNL1        0.1332
      9 N          60.2822   89.3814    9.6041 N.ar    1  UNL1       -0.2366
     10 C          60.5548   87.9679    9.1824 C.ar    1  UNL1        0.1319
     11 N          63.2578   89.9888   12.1589 N.pl3   1  UNL1       -0.2919
     12 C          63.8775   91.3498   12.2755 C.3     1  UNL1        0.0939
     13 C          64.5320   90.9416   13.5619 C.3     1  UNL1        0.0409
     14 C          63.9123   89.5806   13.4453 C.3     1  UNL1        0.0939
     15 C          65.4330   91.6153   14.5541 C.3     1  UNL1        0.0193
     16 C          64.9013   92.0174   15.8978 C.3     1  UNL1        0.0029
     17 C          65.8023   92.6911   16.8899 C.3     1  UNL1        0.0174
     18 C          67.2350   92.9627   16.5383 C.3     1  UNL1        0.0722
     19 N          67.7667   92.5605   15.1946 N.3     1  UNL1       -0.2706
     20 C          66.8657   91.8868   14.2025 C.3     1  UNL1        0.0722
     21 C          69.1994   92.8320   14.8430 C.3     1  UNL1        0.1042
     22 C          69.8905   91.9917   13.8104 C.3     1  UNL1        0.1544
     23 O          69.1808   91.6317   12.5389 O.3     1  UNL1       -0.3805
     24 H          68.4282   91.0540   12.7411 H       1  UNL1        0.2105
     25 C          62.7499   84.7775    9.4430 C.3     1  UNL1        0.1298
     26 C          63.5253   84.1528    8.3212 C.3     1  UNL1        0.0313
     27 C          62.9786   84.3263   10.8552 C.ar    1  UNL1        0.0106
     28 C          62.3434   85.0702   11.9924 C.ar    1  UNL1       -0.0007
     29 C          62.5721   84.6189   13.4044 C.ar    1  UNL1        0.0112
     30 C          63.4359   83.4238   13.6794 C.ar    1  UNL1        0.0585
     31 CL         63.6645   82.9725   15.0915 Cl      1  UNL1       -0.0822
     32 C          64.0710   82.6799   12.5422 C.ar    1  UNL1        0.0225
     33 C          63.8423   83.1312   11.1301 C.ar    1  UNL1        0.0563
     34 CL         64.4774   82.3873    9.9928 Cl      1  UNL1       -0.0825
@<TRIPOS>BOND
     1     1     2    1
     2     2     3   ar
     3     3     4   ar
     4     4    25    1
     5    25    26    1
     6    25    27    1
     7    27    28   ar
     8    28    29   ar
     9    29    30   ar
    10    30    31    1
    11    30    32   ar
    12    32    33   ar
    13    33    34    1
    14     4     5   ar
    15     5     6   ar
    16     6     7   ar
    17     7    11    1
    18    11    12    1
    19    12    13    1
    20    15    13    1
    21    15    16    1
    22    16    17    1
    23    17    18    1
    24    18    19    1
    25    19    21    1
    26    21    22    1
    27    22    23    1
    28    19    20    1
    29    13    14    1
    30     7     8   ar
    31     8     9   ar
    32     9    10   ar
    33    10     2   ar
    34    33    27   ar
    35    10     5   ar
    36    14    11    1
    37    20    15    1
    38    23    24    1
@<TRIPOS>MOLECULE
*****
 34 38 0 0 0
SMALL
GASTEIGER

@<TRIPOS>ATOM
      1 C          65.3883   92.6981   17.3371 C.3     1  UNL1        0.0557
      2 C          65.6047   92.3870   15.8857 C.ar    1  UNL1        0.0995
      3 N          66.7392   92.8809   15.0378 N.ar    1  UNL1       -0.1705
      4 N          66.5602   92.3265   13.6556 N.ar    1  UNL1       -0.2308
      5 C          65.3152   91.4899   13.6492 C.ar    1  UNL1        0.1800
      6 N          64.6430   90.6989   12.5665 N.ar    1  UNL1       -0.2090
      7 C          63.3802   89.9453   12.8621 C.ar    1  UNL1        0.1527
      8 C          62.7896   89.9827   14.2404 C.ar    1  UNL1        0.1332
      9 N          63.4619   90.7737   15.3232 N.ar    1  UNL1       -0.2366
     10 C          64.7246   91.5273   15.0276 C.ar    1  UNL1        0.1319
     11 N          62.7079   89.1543   11.7793 N.pl3   1  UNL1       -0.2919
     12 C          62.5021   87.6941   11.5045 C.3     1  UNL1        0.0939
     13 C          61.7572   88.0355   10.2481 C.3     1  UNL1        0.0409
     14 C          61.9630   89.4957   10.5229 C.3     1  UNL1        0.0939
     15 C          61.0849   87.2445    9.1654 C.3     1  UNL1        0.0193
     16 C          59.6573   87.5298    8.8043 C.3     1  UNL1        0.0029
     17 C          58.9851   86.7387    7.7215 C.3     1  UNL1        0.0174
     18 C          59.7405   85.6623    7.0000 C.3     1  UNL1        0.0722
     19 N          61.1681   85.3769    7.3611 N.3     1  UNL1       -0.2706
     20 C          61.8403   86.1680    8.4438 C.3     1  UNL1        0.0722
     21 C          61.9235   84.3005    6.6396 C.3     1  UNL1        0.1042
     22 C          62.2494   84.4597    5.1841 C.3     1  UNL1        0.1544
     23 O          61.2512   84.0489    4.1426 O.3     1  UNL1       -0.3805
     24 H          61.1255   83.0877    4.1766 H       1  UNL1        0.2105
     25 C          67.4671   92.5665   12.4851 C.3     1  UNL1        0.1298
     26 C          68.7452   91.7923   12.3554 C.3     1  UNL1        0.0313
     27 C          67.0958   93.5808   11.4442 C.ar    1  UNL1        0.0106
     28 C          66.3414   94.8165   11.8366 C.ar    1  UNL1       -0.0007
     29 C          65.9702   95.8307   10.7957 C.ar    1  UNL1        0.0112
     30 C          66.3533   95.6093    9.3625 C.ar    1  UNL1        0.0585
     31 CL         65.9820   96.6236    8.3217 Cl      1  UNL1       -0.0822
     32 C          67.1077   94.3737    8.9701 C.ar    1  UNL1        0.0225
     33 C          67.4789   93.3594   10.0110 C.ar    1  UNL1        0.0563
     34 CL         68.2333   92.1237    9.6186 Cl      1  UNL1       -0.0825
@<TRIPOS>BOND
     1     1     2    1
     2     2     3   ar
     3     3     4   ar
     4     4    25    1
     5    25    26    1
     6    25    27    1
     7    27    28   ar
     8    28    29   ar
     9    29    30   ar
    10    30    31    1
    11    30    32   ar
    12    32    33   ar
    13    33    34    1
    14     4     5   ar
    15     5     6   ar
    16     6     7   ar
    17     7    11    1
    18    11    12    1
    19    12    13    1
    20    15    13    1
    21    15    16    1
    22    16    17    1
    23    17    18    1
    24    18    19    1
    25    19    21    1
    26    21    22    1
    27    22    23    1
    28    19    20    1
    29    13    14    1
    30     7     8   ar
    31     8     9   ar
    32     9    10   ar
    33    10     2   ar
    34    33    27   ar
    35    10     5   ar
    36    14    11    1
    37    20    15    1
    38    23    24    1
@<TRIPOS>MOLECULE
*****
 34 38 0 0 0
SMALL
GASTEIGER

@<TRIPOS>ATOM
      1 C          64.8775   92.0204   15.7039 C.3     1  UNL1        0.0557
      2 C          64.4001   91.2020   14.5410 C.ar    1  UNL1        0.0995
      3 N          63.9992   91.7313   13.1959 N.ar    1  UNL1       -0.1705
      4 N          63.5910   90.5671   12.3426 N.ar    1  UNL1       -0.2308
      5 C          63.7396   89.3184   13.1603 C.ar    1  UNL1        0.1800
      6 N          63.4843   87.8747   12.8433 N.ar    1  UNL1       -0.2090
      7 C          63.7289   86.8235   13.8849 C.ar    1  UNL1        0.1527
      8 C          64.2289   87.2159   15.2435 C.ar    1  UNL1        0.1332
      9 N          64.4843   88.6595   15.5606 N.ar    1  UNL1       -0.2366
     10 C          64.2397   89.7108   14.5190 C.ar    1  UNL1        0.1319
     11 N          63.4735   85.3797   13.5678 N.pl3   1  UNL1       -0.2919
     12 C          64.0321   84.0733   14.0489 C.3     1  UNL1        0.0939
     13 C          63.1125   83.3380   13.1195 C.3     1  UNL1        0.0409
     14 C          62.5540   84.6444   12.6385 C.3     1  UNL1        0.0939
     15 C          62.8571   81.8943   12.8026 C.3     1  UNL1        0.0193
     16 C          62.4559   80.9464   13.8937 C.3     1  UNL1        0.0029
     17 C          62.2006   79.5027   13.5766 C.3     1  UNL1        0.0174
     18 C          62.3465   79.0068   12.1685 C.3     1  UNL1        0.0722
     19 N          62.7477   79.9547   11.0774 N.3     1  UNL1       -0.2706
     20 C          63.0030   81.3984   11.3944 C.3     1  UNL1        0.0722
     21 C          62.8936   79.4589    9.6693 C.3     1  UNL1        0.1042
     22 C          63.7145   78.2358    9.3860 C.3     1  UNL1        0.1544
     23 O          63.4459   76.9628   10.1324 O.3     1  UNL1       -0.3805
     24 H          63.6582   77.0871   11.0707 H       1  UNL1        0.2105
     25 C          63.1174   90.6390   10.9212 C.3     1  UNL1        0.1298
     26 C          63.5428   91.7801   10.0456 C.3     1  UNL1        0.0313
     27 C          62.2182   89.5696   10.3752 C.ar    1  UNL1        0.0106
     28 C          62.8081   88.3558    9.7204 C.ar    1  UNL1       -0.0007
     29 C          61.9089   87.2866    9.1745 C.ar    1  UNL1        0.0112
     30 C          60.4198   87.4310    9.2835 C.ar    1  UNL1        0.0585
     31 CL         59.5207   86.3616    8.7376 Cl      1  UNL1       -0.0822
     32 C          59.8299   88.6447    9.9383 C.ar    1  UNL1        0.0225
     33 C          60.7291   89.7140   10.4842 C.ar    1  UNL1        0.0563
     34 CL         60.1393   90.9278   11.1391 Cl      1  UNL1       -0.0825
@<TRIPOS>BOND
     1     1     2    1
     2     2     3   ar
     3     3     4   ar
     4     4    25    1
     5    25    26    1
     6    25    27    1
     7    27    28   ar
     8    28    29   ar
     9    29    30   ar
    10    30    31    1
    11    30    32   ar
    12    32    33   ar
    13    33    34    1
    14     4     5   ar
    15     5     6   ar
    16     6     7   ar
    17     7    11    1
    18    11    12    1
    19    12    13    1
    20    15    13    1
    21    15    16    1
    22    16    17    1
    23    17    18    1
    24    18    19    1
    25    19    21    1
    26    21    22    1
    27    22    23    1
    28    19    20    1
    29    13    14    1
    30     7     8   ar
    31     8     9   ar
    32     9    10   ar
    33    10     2   ar
    34    33    27   ar
    35    10     5   ar
    36    14    11    1
    37    20    15    1
    38    23    24    1
@<TRIPOS>MOLECULE
*****
 34 38 0 0 0
SMALL
GASTEIGER

@<TRIPOS>ATOM
      1 C          66.4630   92.7239   16.9609 C.3     1  UNL1        0.0557
      2 C          66.1725   92.7755   15.4902 C.ar    1  UNL1        0.0995
      3 N          66.6676   93.8158   14.5296 N.ar    1  UNL1       -0.1705
      4 N          66.1370   93.4791   13.1676 N.ar    1  UNL1       -0.2308
      5 C          65.3140   92.2307   13.2864 C.ar    1  UNL1        0.1800
      6 N          64.5474   91.4337   12.2729 N.ar    1  UNL1       -0.2090
      7 C          63.8028   90.2019   12.6949 C.ar    1  UNL1        0.1527
      8 C          63.8247   89.7670   14.1303 C.ar    1  UNL1        0.1332
      9 N          64.5913   90.5640   15.1438 N.ar    1  UNL1       -0.2366
     10 C          65.3359   91.7958   14.7218 C.ar    1  UNL1        0.1319
     11 N          63.0361   89.4048   11.6814 N.pl3   1  UNL1       -0.2919
     12 C          62.6261   89.6177   10.2543 C.3     1  UNL1        0.0939
     13 C          61.9520   88.2777   10.2481 C.3     1  UNL1        0.0409
     14 C          62.3621   88.0648   11.6752 C.3     1  UNL1        0.0939
     15 C          61.1855   87.4807    9.2347 C.3     1  UNL1        0.0193
     16 C          59.7683   87.8479    8.9078 C.3     1  UNL1        0.0029
     17 C          59.0017   87.0508    7.8943 C.3     1  UNL1        0.0174
     18 C          59.6523   85.8867    7.2077 C.3     1  UNL1        0.0722
     19 N          61.0695   85.5196    7.5345 N.3     1  UNL1       -0.2706
     20 C          61.8360   86.3165    8.5480 C.3     1  UNL1        0.0722
     21 C          61.7201   84.3555    6.8479 C.3     1  UNL1        0.1042
     22 C          62.1312   84.4672    5.4096 C.3     1  UNL1        0.1544
     23 O          61.1537   84.1333    4.3220 O.3     1  UNL1       -0.3805
     24 H          60.9415   83.1874    4.3572 H       1  UNL1        0.2105
     25 C          66.3857   94.2546   11.9080 C.3     1  UNL1        0.1298
     26 C          65.8459   95.6468   11.7653 C.3     1  UNL1        0.0313
     27 C          67.1744   93.6379   10.7909 C.ar    1  UNL1        0.0106
     28 C          67.7908   92.2819   10.9676 C.ar    1  UNL1       -0.0007
     29 C          68.5793   91.6653    9.8505 C.ar    1  UNL1        0.0112
     30 C          68.7515   92.4046    8.5568 C.ar    1  UNL1        0.0585
     31 CL         69.5401   91.7879    7.4397 Cl      1  UNL1       -0.0822
     32 C          68.1351   93.7606    8.3801 C.ar    1  UNL1        0.0225
     33 C          67.3465   94.3772    9.4972 C.ar    1  UNL1        0.0563
     34 CL         66.7300   95.7333    9.3205 Cl      1  UNL1       -0.0825
@<TRIPOS>BOND
     1     1     2    1
     2     2     3   ar
     3     3     4   ar
     4     4    25    1
     5    25    26    1
     6    25    27    1
     7    27    28   ar
     8    28    29   ar
     9    29    30   ar
    10    30    31    1
    11    30    32   ar
    12    32    33   ar
    13    33    34    1
    14     4     5   ar
    15     5     6   ar
    16     6     7   ar
    17     7    11    1
    18    11    12    1
    19    12    13    1
    20    15    13    1
    21    15    16    1
    22    16    17    1
    23    17    18    1
    24    18    19    1
    25    19    21    1
    26    21    22    1
    27    22    23    1
    28    19    20    1
    29    13    14    1
    30     7     8   ar
    31     8     9   ar
    32     9    10   ar
    33    10     2   ar
    34    33    27   ar
    35    10     5   ar
    36    14    11    1
    37    20    15    1
    38    23    24    1
@<TRIPOS>MOLECULE
*****
 34 38 0 0 0
SMALL
GASTEIGER

@<TRIPOS>ATOM
      1 C          65.9391   92.4193   17.2333 C.3     1  UNL1        0.0557
      2 C          66.0029   92.2606   15.7431 C.ar    1  UNL1        0.0995
      3 N          67.1320   92.6976   14.8574 N.ar    1  UNL1       -0.1705
      4 N          66.7757   92.3441   13.4439 N.ar    1  UNL1       -0.2308
      5 C          65.4266   91.6886   13.4559 C.ar    1  UNL1        0.1800
      6 N          64.5713   91.1321   12.3565 N.ar    1  UNL1       -0.2090
      7 C          63.2383   90.5239   12.6781 C.ar    1  UNL1        0.1527
      8 C          62.7607   90.4723   14.0991 C.ar    1  UNL1        0.1332
      9 N          63.6160   91.0289   15.1985 N.ar    1  UNL1       -0.2366
     10 C          64.9490   91.6370   14.8769 C.ar    1  UNL1        0.1319
     11 N          62.3830   89.9674   11.5787 N.pl3   1  UNL1       -0.2919
     12 C          62.2841   88.6447   10.8781 C.3     1  UNL1        0.0939
     13 C          61.1733   89.1802   10.0240 C.3     1  UNL1        0.0409
     14 C          61.2722   90.5028   10.7246 C.3     1  UNL1        0.0939
     15 C          60.3180   88.6236    8.9247 C.3     1  UNL1        0.0193
     16 C          59.9305   87.1746    8.9365 C.3     1  UNL1        0.0029
     17 C          59.0751   86.6180    7.8370 C.3     1  UNL1        0.0174
     18 C          58.6074   87.5104    6.7259 C.3     1  UNL1        0.0722
     19 N          58.9949   88.9595    6.7141 N.3     1  UNL1       -0.2706
     20 C          59.8502   89.5161    7.8134 C.3     1  UNL1        0.0722
     21 C          58.5271   89.8519    5.6029 C.3     1  UNL1        0.1042
     22 C          59.2315   91.1490    5.3357 C.3     1  UNL1        0.1544
     23 O          58.4374   92.4028    5.1183 O.3     1  UNL1       -0.3805
     24 H          57.9263   92.3236    4.2977 H       1  UNL1        0.2105
     25 C          67.6203   92.6010   12.2312 C.3     1  UNL1        0.1298
     26 C          68.8841   91.8216   12.0185 C.3     1  UNL1        0.0313
     27 C          67.2011   93.6374   11.2310 C.ar    1  UNL1        0.0106
     28 C          66.3141   94.7711   11.6528 C.ar    1  UNL1       -0.0007
     29 C          65.8949   95.8074   10.6526 C.ar    1  UNL1        0.0112
     30 C          66.3628   95.7100    9.2308 C.ar    1  UNL1        0.0585
     31 CL         65.9435   96.7464    8.2307 Cl      1  UNL1       -0.0822
     32 C          67.2498   94.5763    8.8090 C.ar    1  UNL1        0.0225
     33 C          67.6689   93.5400    9.8092 C.ar    1  UNL1        0.0563
     34 CL         68.5559   92.4062    9.3875 Cl      1  UNL1       -0.0825
@<TRIPOS>BOND
     1     1     2    1
     2     2     3   ar
     3     3     4   ar
     4     4    25    1
     5    25    26    1
     6    25    27    1
     7    27    28   ar
     8    28    29   ar
     9    29    30   ar
    10    30    31    1
    11    30    32   ar
    12    32    33   ar
    13    33    34    1
    14     4     5   ar
    15     5     6   ar
    16     6     7   ar
    17     7    11    1
    18    11    12    1
    19    12    13    1
    20    15    13    1
    21    15    16    1
    22    16    17    1
    23    17    18    1
    24    18    19    1
    25    19    21    1
    26    21    22    1
    27    22    23    1
    28    19    20    1
    29    13    14    1
    30     7     8   ar
    31     8     9   ar
    32     9    10   ar
    33    10     2   ar
    34    33    27   ar
    35    10     5   ar
    36    14    11    1
    37    20    15    1
    38    23    24    1
@<TRIPOS>MOLECULE
*****
 34 38 0 0 0
SMALL
GASTEIGER

@<TRIPOS>ATOM
      1 C          66.6109   92.6261   16.9875 C.3     1  UNL1        0.0557
      2 C          66.3011   92.7835   15.5283 C.ar    1  UNL1        0.0995
      3 N          66.8916   93.8096   14.6072 N.ar    1  UNL1       -0.1705
      4 N          66.3018   93.6026   13.2437 N.ar    1  UNL1       -0.2308
      5 C          65.3467   92.4485   13.3220 C.ar    1  UNL1        0.1800
      6 N          64.4775   91.7933   12.2901 N.ar    1  UNL1       -0.2090
      7 C          63.6078   90.6318   12.6701 C.ar    1  UNL1        0.1527
      8 C          63.6073   90.1255   14.0821 C.ar    1  UNL1        0.1332
      9 N          64.4766   90.7808   15.1141 N.ar    1  UNL1       -0.2366
     10 C          65.3463   91.9423   14.7340 C.ar    1  UNL1        0.1319
     11 N          62.7384   89.9765   11.6382 N.pl3   1  UNL1       -0.2919
     12 C          62.7298   89.9206   10.1392 C.3     1  UNL1        0.0939
     13 C          61.5091   89.0498   10.1787 C.3     1  UNL1        0.0409
     14 C          61.5177   89.1056   11.6777 C.3     1  UNL1        0.0939
     15 C          60.6398   88.3945    9.1468 C.3     1  UNL1        0.0193
     16 C          60.5083   86.9006    9.1160 C.3     1  UNL1        0.0029
     17 C          59.6390   86.2454    8.0839 C.3     1  UNL1        0.0174
     18 C          58.9012   87.0840    7.0828 C.3     1  UNL1        0.0722
     19 N          59.0327   88.5779    7.1136 N.3     1  UNL1       -0.2706
     20 C          59.9020   89.2332    8.1456 C.3     1  UNL1        0.0722
     21 C          58.2950   89.4166    6.1125 C.3     1  UNL1        0.1042
     22 C          58.9001   90.6955    5.6141 C.3     1  UNL1        0.1544
     23 O          58.0220   91.8741    5.3148 O.3     1  UNL1       -0.3805
     24 H          57.4443   91.6645    4.5642 H       1  UNL1        0.2105
     25 C          66.6124   94.4082   12.0171 C.3     1  UNL1        0.1298
     26 C          66.2323   95.8579   11.9558 C.3     1  UNL1        0.0313
     27 C          67.3032   93.7640   10.8518 C.ar    1  UNL1        0.0106
     28 C          67.7101   92.3221   10.9246 C.ar    1  UNL1       -0.0007
     29 C          68.4008   91.6780    9.7593 C.ar    1  UNL1        0.0112
     30 C          68.6847   92.4758    8.5212 C.ar    1  UNL1        0.0585
     31 CL         69.3755   91.8316    7.3559 Cl      1  UNL1       -0.0822
     32 C          68.2779   93.9177    8.4483 C.ar    1  UNL1        0.0225
     33 C          67.5871   94.5618    9.6136 C.ar    1  UNL1        0.0563
     34 CL         67.1802   96.0037    9.5409 Cl      1  UNL1       -0.0825
@<TRIPOS>BOND
     1     1     2    1
     2     2     3   ar
     3     3     4   ar
     4     4    25    1
     5    25    26    1
     6    25    27    1
     7    27    28   ar
     8    28    29   ar
     9    29    30   ar
    10    30    31    1
    11    30    32   ar
    12    32    33   ar
    13    33    34    1
    14     4     5   ar
    15     5     6   ar
    16     6     7   ar
    17     7    11    1
    18    11    12    1
    19    12    13    1
    20    15    13    1
    21    15    16    1
    22    16    17    1
    23    17    18    1
    24    18    19    1
    25    19    21    1
    26    21    22    1
    27    22    23    1
    28    19    20    1
    29    13    14    1
    30     7     8   ar
    31     8     9   ar
    32     9    10   ar
    33    10     2   ar
    34    33    27   ar
    35    10     5   ar
    36    14    11    1
    37    20    15    1
    38    23    24    1
@<TRIPOS>MOLECULE
*****
 34 38 0 0 0
SMALL
GASTEIGER

@<TRIPOS>ATOM
      1 C          64.2084   93.4785   17.5275 C.3     1  UNL1        0.0557
      2 C          64.7805   92.7213   16.3659 C.ar    1  UNL1        0.0995
      3 N          65.8277   93.2228   15.4163 N.ar    1  UNL1       -0.1705
      4 N          66.1003   92.1411   14.4135 N.ar    1  UNL1       -0.2308
      5 C          65.2215   90.9710   14.7434 C.ar    1  UNL1        0.1800
      6 N          65.0587   89.6254   14.1009 N.ar    1  UNL1       -0.2090
      7 C          64.0803   88.6384   14.6652 C.ar    1  UNL1        0.1527
      8 C          63.2646   88.9970   15.8718 C.ar    1  UNL1        0.1332
      9 N          63.4274   90.3426   16.5143 N.ar    1  UNL1       -0.2366
     10 C          64.4059   91.3296   15.9501 C.ar    1  UNL1        0.1319
     11 N          63.9174   87.2928   14.0227 N.pl3   1  UNL1       -0.2919
     12 C          64.3065   85.8902   14.3854 C.3     1  UNL1        0.0939
     13 C          63.6872   85.3897   13.1142 C.3     1  UNL1        0.0409
     14 C          63.2982   86.7922   12.7515 C.3     1  UNL1        0.0939
     15 C          63.5244   84.0441   12.4718 C.3     1  UNL1        0.0193
     16 C          64.0700   83.7987   11.0962 C.3     1  UNL1        0.0029
     17 C          63.9071   82.4530   10.4539 C.3     1  UNL1        0.0174
     18 C          63.1987   81.3527   11.1870 C.3     1  UNL1        0.0722
     19 N          62.6531   81.5981   12.5625 N.3     1  UNL1       -0.2706
     20 C          62.8159   82.9437   13.2049 C.3     1  UNL1        0.0722
     21 C          61.9447   80.4978   13.2957 C.3     1  UNL1        0.1042
     22 C          60.7976   80.8209   14.2067 C.3     1  UNL1        0.1544
     23 O          59.6006   79.9182   14.2546 O.3     1  UNL1       -0.3805
     24 H          59.1418   79.9441   13.4004 H       1  UNL1        0.2105
     25 C          67.0796   92.2162   13.2798 C.3     1  UNL1        0.1298
     26 C          68.2866   91.3257   13.2711 C.3     1  UNL1        0.0313
     27 C          66.8519   93.1819   12.1547 C.ar    1  UNL1        0.0106
     28 C          66.1870   94.4999   12.4206 C.ar    1  UNL1       -0.0007
     29 C          65.9594   95.4655   11.2955 C.ar    1  UNL1        0.0112
     30 C          66.3966   95.1131    9.9046 C.ar    1  UNL1        0.0585
     31 CL         66.1690   96.0787    8.7796 Cl      1  UNL1       -0.0822
     32 C          67.0616   93.7951    9.6388 C.ar    1  UNL1        0.0225
     33 C          67.2892   92.8295   10.7638 C.ar    1  UNL1        0.0563
     34 CL         67.9541   91.5114   10.4980 Cl      1  UNL1       -0.0825
@<TRIPOS>BOND
     1     1     2    1
     2     2     3   ar
     3     3     4   ar
     4     4    25    1
     5    25    26    1
     6    25    27    1
     7    27    28   ar
     8    28    29   ar
     9    29    30   ar
    10    30    31    1
    11    30    32   ar
    12    32    33   ar
    13    33    34    1
    14     4     5   ar
    15     5     6   ar
    16     6     7   ar
    17     7    11    1
    18    11    12    1
    19    12    13    1
    20    15    13    1
    21    15    16    1
    22    16    17    1
    23    17    18    1
    24    18    19    1
    25    19    21    1
    26    21    22    1
    27    22    23    1
    28    19    20    1
    29    13    14    1
    30     7     8   ar
    31     8     9   ar
    32     9    10   ar
    33    10     2   ar
    34    33    27   ar
    35    10     5   ar
    36    14    11    1
    37    20    15    1
    38    23    24    1
@<TRIPOS>MOLECULE
*****
 34 38 0 0 0
SMALL
GASTEIGER

@<TRIPOS>ATOM
      1 C          65.1744   92.2500   15.6569 C.3     1  UNL1        0.0557
      2 C          64.6338   91.4267   14.5256 C.ar    1  UNL1        0.0995
      3 N          64.2249   91.9415   13.1774 N.ar    1  UNL1       -0.1705
      4 N          63.7455   90.7770   12.3625 N.ar    1  UNL1       -0.2308
      5 C          63.8582   89.5425   13.2070 C.ar    1  UNL1        0.1800
      6 N          63.5318   88.1046   12.9314 N.ar    1  UNL1       -0.2090
      7 C          63.7544   87.0683   13.9928 C.ar    1  UNL1        0.1527
      8 C          64.3033   87.4699   15.3297 C.ar    1  UNL1        0.1332
      9 N          64.6297   88.9078   15.6053 N.ar    1  UNL1       -0.2366
     10 C          64.4071   89.9441   14.5440 C.ar    1  UNL1        0.1319
     11 N          63.4280   85.6304   13.7172 N.pl3   1  UNL1       -0.2919
     12 C          62.6245   84.9054   12.6786 C.3     1  UNL1        0.0939
     13 C          62.9664   83.5969   13.3275 C.3     1  UNL1        0.0409
     14 C          63.7698   84.3219   14.3661 C.3     1  UNL1        0.0939
     15 C          62.6400   82.1591   13.0519 C.3     1  UNL1        0.0193
     16 C          63.4071   81.4025   12.0082 C.3     1  UNL1        0.0029
     17 C          63.0806   79.9646   11.7327 C.3     1  UNL1        0.0174
     18 C          61.9871   79.2833   12.5007 C.3     1  UNL1        0.0722
     19 N          61.2200   80.0398   13.5444 N.3     1  UNL1       -0.2706
     20 C          61.5464   81.4777   13.8200 C.3     1  UNL1        0.0722
     21 C          60.1265   79.3585   14.3125 C.3     1  UNL1        0.1042
     22 C          58.8125   80.0513   14.5210 C.3     1  UNL1        0.1544
     23 O          57.9361   79.6655   15.6756 O.3     1  UNL1       -0.3805
     24 H          57.6224   78.7558   15.5535 H       1  UNL1        0.2105
     25 C          63.2420   90.8365   10.9508 C.3     1  UNL1        0.1298
     26 C          63.6941   91.9383   10.0390 C.3     1  UNL1        0.0313
     27 C          62.2861   89.7940   10.4508 C.ar    1  UNL1        0.0106
     28 C          62.8071   88.5667    9.7636 C.ar    1  UNL1       -0.0007
     29 C          61.8513   87.5244    9.2637 C.ar    1  UNL1        0.0112
     30 C          60.3746   87.7093    9.4511 C.ar    1  UNL1        0.0585
     31 CL         59.4188   86.6669    8.9512 Cl      1  UNL1       -0.0822
     32 C          59.8536   88.9366   10.1384 C.ar    1  UNL1        0.0225
     33 C          60.8094   89.9789   10.6382 C.ar    1  UNL1        0.0563
     34 CL         60.2885   91.2063   11.3255 Cl      1  UNL1       -0.0825
@<TRIPOS>BOND
     1     1     2    1
     2     2     3   ar
     3     3     4   ar
     4     4    25    1
     5    25    26    1
     6    25    27    1
     7    27    28   ar
     8    28    29   ar
     9    29    30   ar
    10    30    31    1
    11    30    32   ar
    12    32    33   ar
    13    33    34    1
    14     4     5   ar
    15     5     6   ar
    16     6     7   ar
    17     7    11    1
    18    11    12    1
    19    12    13    1
    20    15    13    1
    21    15    16    1
    22    16    17    1
    23    17    18    1
    24    18    19    1
    25    19    21    1
    26    21    22    1
    27    22    23    1
    28    19    20    1
    29    13    14    1
    30     7     8   ar
    31     8     9   ar
    32     9    10   ar
    33    10     2   ar
    34    33    27   ar
    35    10     5   ar
    36    14    11    1
    37    20    15    1
    38    23    24    1
@<TRIPOS>MOLECULE
*****
 34 38 0 0 0
SMALL
GASTEIGER

@<TRIPOS>ATOM
      1 C          64.1916   92.3302   17.2496 C.3     1  UNL1        0.0557
      2 C          64.1272   91.5674   15.9596 C.ar    1  UNL1        0.0995
      3 N          64.2821   92.1461   14.5844 N.ar    1  UNL1       -0.1705
      4 N          64.1472   91.0283   13.5933 N.ar    1  UNL1       -0.2308
      5 C          63.9089   89.7588   14.3559 C.ar    1  UNL1        0.1800
      6 N          63.7016   88.3425   13.9075 N.ar    1  UNL1       -0.2090
      7 C          63.4820   87.2594   14.9217 C.ar    1  UNL1        0.1527
      8 C          63.4697   87.5925   16.3842 C.ar    1  UNL1        0.1332
      9 N          63.6769   89.0088   16.8325 N.ar    1  UNL1       -0.2366
     10 C          63.8966   90.0920   15.8184 C.ar    1  UNL1        0.1319
     11 N          63.2747   85.8430   14.4734 N.pl3   1  UNL1       -0.2919
     12 C          62.7798   84.5858   15.1251 C.3     1  UNL1        0.0939
     13 C          62.9815   83.8399   13.8394 C.3     1  UNL1        0.0409
     14 C          63.4764   85.0970   13.1877 C.3     1  UNL1        0.0939
     15 C          62.7742   82.4236   13.3912 C.3     1  UNL1        0.0193
     16 C          62.2607   81.3984   14.3583 C.3     1  UNL1        0.0029
     17 C          62.0534   79.9820   13.9099 C.3     1  UNL1        0.0174
     18 C          62.3596   79.5908   12.4946 C.3     1  UNL1        0.0722
     19 N          62.8731   80.6161   11.5275 N.3     1  UNL1       -0.2706
     20 C          63.0804   82.0324   11.9758 C.3     1  UNL1        0.0722
     21 C          63.1792   80.2250   10.1122 C.3     1  UNL1        0.1042
     22 C          62.7339   78.8913    9.5895 C.3     1  UNL1        0.1544
     23 O          63.4758   77.6472    9.9793 O.3     1  UNL1       -0.3805
     24 H          64.3718   77.6757    9.6090 H       1  UNL1        0.2105
     25 C          64.2351   91.1574   12.1014 C.3     1  UNL1        0.1298
     26 C          63.4209   90.2561   11.2214 C.3     1  UNL1        0.0313
     27 C          65.1373   92.1879   11.4896 C.ar    1  UNL1        0.0106
     28 C          64.6337   93.0609   10.3787 C.ar    1  UNL1       -0.0007
     29 C          65.5359   94.0914    9.7669 C.ar    1  UNL1        0.0112
     30 C          66.9416   94.2488   10.2661 C.ar    1  UNL1        0.0585
     31 CL         67.8438   95.2792    9.6543 Cl      1  UNL1       -0.0822
     32 C          67.4452   93.3757   11.3771 C.ar    1  UNL1        0.0225
     33 C          66.5430   92.3453   11.9888 C.ar    1  UNL1        0.0563
     34 CL         67.0465   91.4722   13.0998 Cl      1  UNL1       -0.0825
@<TRIPOS>BOND
     1     1     2    1
     2     2     3   ar
     3     3     4   ar
     4     4    25    1
     5    25    26    1
     6    25    27    1
     7    27    28   ar
     8    28    29   ar
     9    29    30   ar
    10    30    31    1
    11    30    32   ar
    12    32    33   ar
    13    33    34    1
    14     4     5   ar
    15     5     6   ar
    16     6     7   ar
    17     7    11    1
    18    11    12    1
    19    12    13    1
    20    15    13    1
    21    15    16    1
    22    16    17    1
    23    17    18    1
    24    18    19    1
    25    19    21    1
    26    21    22    1
    27    22    23    1
    28    19    20    1
    29    13    14    1
    30     7     8   ar
    31     8     9   ar
    32     9    10   ar
    33    10     2   ar
    34    33    27   ar
    35    10     5   ar
    36    14    11    1
    37    20    15    1
    38    23    24    1
