@<TRIPOS>MOLECULE
*****
 38 41 0 0 0
SMALL
GASTEIGER

@<TRIPOS>ATOM
      1 C          61.3377   88.1504    9.3932 C.3     1  UNL1        0.1812
      2 O          62.5820   87.8799   10.1859 O.3     1  UNL1       -0.3784
      3 H          62.8459   86.9540   10.0675 H       1  UNL1        0.2106
      4 C          60.0934   88.4210    8.6006 C.3     1  UNL1        0.4197
      5 F          58.8490   88.6915    7.8079 F       1  UNL1       -0.1676
      6 F          60.4696   87.3331    7.6386 F       1  UNL1       -0.1676
      7 F          59.7172   89.5087    9.5624 F       1  UNL1       -0.1676
      8 C          61.3305   86.7274    8.9188 C.3     1  UNL1        0.0398
      9 C          61.1914   85.9507   10.8879 C.3     1  UNL1        0.0045
     10 C          62.0608   85.6735    9.6973 C.3     1  UNL1        0.0215
     11 C          62.9301   85.3964    8.5067 C.3     1  UNL1        0.0045
     12 C          62.7910   84.6197   10.4758 C.ar    1  UNL1       -0.0226
     13 C          63.7132   83.6699    9.7703 C.ar    1  UNL1       -0.0043
     14 C          64.4434   82.6161   10.5488 C.ar    1  UNL1       -0.0002
     15 C          64.2515   82.5120   12.0329 C.ar    1  UNL1        0.0045
     16 C          63.3295   83.4617   12.7384 C.ar    1  UNL1        0.0528
     17 C          62.5992   84.5156   11.9598 C.ar    1  UNL1        0.0002
     18 C          63.1376   83.3576   14.2224 C.2     1  UNL1        0.2427
     19 N          62.4225   82.1747   14.8051 N.am    1  UNL1       -0.3253
     20 O          63.6608   84.4364   15.1238 O.2     1  UNL1       -0.2704
     21 H          62.0792   81.4667   14.2134 H       1  UNL1        0.1453
     22 H          62.2966   82.1064   15.7791 H       1  UNL1        0.1453
     23 C          61.3448   89.5733    9.8677 C.3     1  UNL1        0.0811
     24 C          62.2095   89.9733   11.0263 C.2     1  UNL1        0.0614
     25 C          63.4547   90.8063   10.9510 C.2     1  UNL1        0.0163
     26 C          63.9956   90.9582   12.3418 C.2     1  UNL1        0.0264
     27 C          65.1999   91.6741   12.8778 C.2     1  UNL1        0.0903
     28 C          65.4932   91.6509   14.3487 C.2     1  UNL1        0.3192
     29 N          64.5823   90.9119   15.2835 N.2     1  UNL1       -0.0585
     30 C          63.3781   90.1960   14.7476 C.3     1  UNL1        0.3085
     31 C          63.0847   90.2192   13.2768 C.2     1  UNL1        0.1121
     32 N          61.9808   89.6104   12.4637 N.2     1  UNL1       -0.2495
     33 N          66.6975   92.3668   14.8846 N.pl3   1  UNL1       -0.1860
     34 C          67.7416   91.6089   15.6500 C.3     1  UNL1        0.2346
     35 C          68.9459   92.3248   16.1859 C.3     1  UNL1        0.1929
     36 O          69.1061   93.7985   15.9565 O.3     1  UNL1       -0.3449
     37 C          68.0621   94.5563   15.1912 C.3     1  UNL1        0.1929
     38 C          66.8578   93.8404   14.6552 C.3     1  UNL1        0.2346
@<TRIPOS>BOND
     1     9    10    1
     2    10    11    1
     3    10     8    1
     4     8     1    1
     5     1     2    1
     6     1    23    1
     7    23    24    1
     8    24    25    2
     9    25    26    1
    10    26    27    2
    11    27    28    1
    12    28    33    1
    13    33    34    1
    14    34    35    1
    15    35    36    1
    16    36    37    1
    17    37    38    1
    18    28    29    2
    19    29    30    1
    20    30    31    1
    21    31    32    2
    22     1     4    1
    23     4     5    1
    24     4     6    1
    25     4     7    1
    26    10    12    1
    27    12    13   ar
    28    13    14   ar
    29    14    15   ar
    30    15    16   ar
    31    16    18    1
    32    18    19   am
    33    18    20    2
    34    16    17   ar
    35    32    24    1
    36    17    12   ar
    37    31    26    1
    38    38    33    1
    39     2     3    1
    40    19    21    1
    41    19    22    1
@<TRIPOS>MOLECULE
*****
 38 41 0 0 0
SMALL
GASTEIGER

@<TRIPOS>ATOM
      1 C          63.6690   87.0771   15.9339 C.3     1  UNL1        0.1812
      2 O          64.2510   87.2461   14.5618 O.3     1  UNL1       -0.3784
      3 H          64.4798   86.3764   14.1983 H       1  UNL1        0.2106
      4 C          63.0870   86.9081   17.3060 C.3     1  UNL1        0.4197
      5 F          62.5049   86.7391   18.6781 F       1  UNL1       -0.1676
      6 F          62.3429   88.2012   17.1496 F       1  UNL1       -0.1676
      7 F          63.8310   85.6151   17.4623 F       1  UNL1       -0.1676
      8 C          63.8385   85.5908   15.8228 C.3     1  UNL1        0.0398
      9 C          65.2949   85.1030   14.3596 C.3     1  UNL1        0.0045
     10 C          63.8093   84.9313   14.4759 C.3     1  UNL1        0.0215
     11 C          62.3237   84.7595   14.5922 C.3     1  UNL1        0.0045
     12 C          63.7801   84.2717   13.1290 C.ar    1  UNL1       -0.0226
     13 C          64.3554   82.8974   12.9542 C.ar    1  UNL1       -0.0043
     14 C          64.3262   82.2379   11.6073 C.ar    1  UNL1       -0.0002
     15 C          63.7217   82.9526   10.4352 C.ar    1  UNL1        0.0045
     16 C          63.1465   84.3268   10.6100 C.ar    1  UNL1        0.0528
     17 C          63.1757   84.9864   11.9569 C.ar    1  UNL1        0.0002
     18 C          62.5420   85.0415    9.4378 C.2     1  UNL1        0.2427
     19 N          61.3577   85.9404    9.6368 N.am    1  UNL1       -0.3253
     20 O          63.1218   84.8574    8.0667 O.2     1  UNL1       -0.2704
     21 H          60.9772   86.0612   10.5367 H       1  UNL1        0.1453
     22 H          60.9610   86.4095    8.8676 H       1  UNL1        0.1453
     23 C          63.4995   88.5633   16.0450 C.3     1  UNL1        0.0811
     24 C          63.7741   89.4402   14.8594 C.2     1  UNL1        0.0614
     25 C          64.8913   90.4338   14.7375 C.2     1  UNL1        0.0163
     26 C          64.7875   91.0852   13.3904 C.2     1  UNL1        0.0264
     27 C          65.6160   92.1401   12.7190 C.2     1  UNL1        0.0903
     28 C          65.2631   92.6040   11.3368 C.2     1  UNL1        0.3192
     29 N          64.0818   92.0130   10.6261 N.2     1  UNL1       -0.0585
     30 C          63.2533   90.9581   11.2974 C.3     1  UNL1        0.3085
     31 C          63.6061   90.4942   12.6795 C.2     1  UNL1        0.1121
     32 N          62.9798   89.4775   13.5875 N.2     1  UNL1       -0.2495
     33 N          66.0916   93.6589   10.6654 N.pl3   1  UNL1       -0.1860
     34 C          65.7974   95.1099   10.9067 C.3     1  UNL1        0.2346
     35 C          66.6259   96.1648   10.2353 C.3     1  UNL1        0.1929
     36 O          67.7486   95.7687    9.3227 O.3     1  UNL1       -0.3449
     37 C          68.0428   94.3178    9.0815 C.3     1  UNL1        0.1929
     38 C          67.2142   93.2629    9.7529 C.3     1  UNL1        0.2346
@<TRIPOS>BOND
     1     9    10    1
     2    10    11    1
     3    10     8    1
     4     8     1    1
     5     1     2    1
     6     1    23    1
     7    23    24    1
     8    24    25    2
     9    25    26    1
    10    26    27    2
    11    27    28    1
    12    28    33    1
    13    33    34    1
    14    34    35    1
    15    35    36    1
    16    36    37    1
    17    37    38    1
    18    28    29    2
    19    29    30    1
    20    30    31    1
    21    31    32    2
    22     1     4    1
    23     4     5    1
    24     4     6    1
    25     4     7    1
    26    10    12    1
    27    12    13   ar
    28    13    14   ar
    29    14    15   ar
    30    15    16   ar
    31    16    18    1
    32    18    19   am
    33    18    20    2
    34    16    17   ar
    35    32    24    1
    36    17    12   ar
    37    31    26    1
    38    38    33    1
    39     2     3    1
    40    19    21    1
    41    19    22    1
@<TRIPOS>MOLECULE
*****
 38 41 0 0 0
SMALL
GASTEIGER

@<TRIPOS>ATOM
      1 C          61.2234   87.9101    9.1931 C.3     1  UNL1        0.1812
      2 O          62.6442   87.9741    9.6699 O.3     1  UNL1       -0.3784
      3 H          63.0805   87.1245    9.5008 H       1  UNL1        0.2106
      4 C          59.8027   87.8462    8.7164 C.3     1  UNL1        0.4197
      5 F          58.3818   87.7821    8.2396 F       1  UNL1       -0.1676
      6 F          59.3527   88.5490    9.9629 F       1  UNL1       -0.1676
      7 F          60.2525   87.1433    7.4700 F       1  UNL1       -0.1676
      8 C          61.4368   86.4939    8.7472 C.3     1  UNL1        0.0398
      9 C          63.0379   85.1254    8.4952 C.3     1  UNL1        0.0045
     10 C          62.1559   85.5267    9.6402 C.3     1  UNL1        0.0215
     11 C          61.2739   85.9281   10.7852 C.3     1  UNL1        0.0045
     12 C          62.8751   84.5596   10.5332 C.ar    1  UNL1       -0.0226
     13 C          63.8142   83.5497    9.9430 C.ar    1  UNL1       -0.0043
     14 C          64.5334   82.5826   10.8360 C.ar    1  UNL1       -0.0002
     15 C          64.3133   82.6252   12.3192 C.ar    1  UNL1        0.0045
     16 C          63.3742   83.6350   12.9093 C.ar    1  UNL1        0.0528
     17 C          62.6551   84.6022   12.0164 C.ar    1  UNL1        0.0002
     18 C          63.1542   83.6777   14.3926 C.2     1  UNL1        0.2427
     19 N          62.1332   84.6110   14.9727 N.am    1  UNL1       -0.3253
     20 O          63.9550   82.7870   15.2955 O.2     1  UNL1       -0.2704
     21 H          61.6076   85.1956   14.3801 H       1  UNL1        0.1453
     22 H          61.9888   84.6390   15.9462 H       1  UNL1        0.1453
     23 C          61.0100   89.3263    9.6390 C.3     1  UNL1        0.0811
     24 C          62.1324   90.0882   10.2791 C.2     1  UNL1        0.0614
     25 C          62.6935   89.8465   11.6491 C.2     1  UNL1        0.0163
     26 C          63.7986   90.8345   11.8784 C.2     1  UNL1        0.0264
     27 C          64.7096   91.0682   13.0469 C.2     1  UNL1        0.0903
     28 C          65.7426   92.1542   12.9871 C.2     1  UNL1        0.3192
     29 N          65.8646   93.0065   11.7589 N.2     1  UNL1       -0.0585
     30 C          64.9535   92.7729   10.5903 C.3     1  UNL1        0.3085
     31 C          63.9206   91.6869   10.6501 C.2     1  UNL1        0.1121
     32 N          62.8908   91.2256    9.6617 N.2     1  UNL1       -0.2495
     33 N          66.6537   92.3879   14.1556 N.pl3   1  UNL1       -0.1860
     34 C          66.0824   92.5302   15.5353 C.3     1  UNL1        0.2346
     35 C          66.9934   92.7638   16.7038 C.3     1  UNL1        0.1929
     36 O          68.4757   92.8552   16.4926 O.3     1  UNL1       -0.3449
     37 C          69.0469   92.7129   15.1130 C.3     1  UNL1        0.1929
     38 C          68.1359   92.4793   13.9445 C.3     1  UNL1        0.2346
@<TRIPOS>BOND
     1     9    10    1
     2    10    11    1
     3    10     8    1
     4     8     1    1
     5     1     2    1
     6     1    23    1
     7    23    24    1
     8    24    25    2
     9    25    26    1
    10    26    27    2
    11    27    28    1
    12    28    33    1
    13    33    34    1
    14    34    35    1
    15    35    36    1
    16    36    37    1
    17    37    38    1
    18    28    29    2
    19    29    30    1
    20    30    31    1
    21    31    32    2
    22     1     4    1
    23     4     5    1
    24     4     6    1
    25     4     7    1
    26    10    12    1
    27    12    13   ar
    28    13    14   ar
    29    14    15   ar
    30    15    16   ar
    31    16    18    1
    32    18    19   am
    33    18    20    2
    34    16    17   ar
    35    32    24    1
    36    17    12   ar
    37    31    26    1
    38    38    33    1
    39     2     3    1
    40    19    21    1
    41    19    22    1
@<TRIPOS>MOLECULE
*****
 38 41 0 0 0
SMALL
GASTEIGER

@<TRIPOS>ATOM
      1 C          63.5954   87.1407   16.1143 C.3     1  UNL1        0.1812
      2 O          64.1901   87.2730   14.7437 O.3     1  UNL1       -0.3784
      3 H          64.4944   86.4041   14.4380 H       1  UNL1        0.2106
      4 C          63.0006   87.0084   17.4850 C.3     1  UNL1        0.4197
      5 F          62.4058   86.8761   18.8557 F       1  UNL1       -0.1676
      6 F          63.8494   85.7973   17.7364 F       1  UNL1       -0.1676
      7 F          62.1519   88.2193   17.2336 F       1  UNL1       -0.1676
      8 C          63.8841   85.6687   16.0976 C.3     1  UNL1        0.0398
      9 C          62.1801   84.7712   15.2085 C.3     1  UNL1        0.0045
     10 C          63.6341   84.8695   14.8531 C.3     1  UNL1        0.0215
     11 C          65.0880   84.9679   14.4978 C.3     1  UNL1        0.0045
     12 C          63.3840   84.0703   13.6087 C.ar    1  UNL1       -0.0226
     13 C          63.4021   84.7438   12.2685 C.ar    1  UNL1       -0.0043
     14 C          63.1520   83.9446   11.0240 C.ar    1  UNL1       -0.0002
     15 C          62.8838   82.4718   11.1197 C.ar    1  UNL1        0.0045
     16 C          62.8657   81.7984   12.4599 C.ar    1  UNL1        0.0528
     17 C          63.1158   82.5976   13.7044 C.ar    1  UNL1        0.0002
     18 C          62.5975   80.3256   12.5556 C.2     1  UNL1        0.2427
     19 N          62.1708   79.7244   13.8619 N.am    1  UNL1       -0.3253
     20 O          62.7560   79.4541   11.3451 O.2     1  UNL1       -0.2704
     21 H          62.0667   80.2964   14.6564 H       1  UNL1        0.1453
     22 H          61.9947   78.7578   13.9248 H       1  UNL1        0.1453
     23 C          63.3066   88.6125   16.1311 C.3     1  UNL1        0.0811
     24 C          63.6177   89.4515   14.9273 C.2     1  UNL1        0.0614
     25 C          64.7485   90.4292   14.8023 C.2     1  UNL1        0.0163
     26 C          64.6824   91.0422   13.4349 C.2     1  UNL1        0.0264
     27 C          65.5376   92.0682   12.7524 C.2     1  UNL1        0.0903
     28 C          65.2212   92.4955   11.3498 C.2     1  UNL1        0.3192
     29 N          64.0496   91.8967   10.6296 N.2     1  UNL1       -0.0585
     30 C          63.1943   90.8706   11.3121 C.3     1  UNL1        0.3085
     31 C          63.5107   90.4433   12.7146 C.2     1  UNL1        0.1121
     32 N          62.8527   89.4602   13.6371 N.2     1  UNL1       -0.2495
     33 N          66.0764   93.5216   10.6673 N.pl3   1  UNL1       -0.1860
     34 C          67.2294   93.0877    9.8114 C.3     1  UNL1        0.2346
     35 C          68.0847   94.1137    9.1290 C.3     1  UNL1        0.1929
     36 O          67.7869   95.5737    9.3024 O.3     1  UNL1       -0.3449
     37 C          66.6340   96.0075   10.1583 C.3     1  UNL1        0.1929
     38 C          65.7788   94.9814   10.8407 C.3     1  UNL1        0.2346
@<TRIPOS>BOND
     1     9    10    1
     2    10    11    1
     3    10     8    1
     4     8     1    1
     5     1     2    1
     6     1    23    1
     7    23    24    1
     8    24    25    2
     9    25    26    1
    10    26    27    2
    11    27    28    1
    12    28    33    1
    13    33    34    1
    14    34    35    1
    15    35    36    1
    16    36    37    1
    17    37    38    1
    18    28    29    2
    19    29    30    1
    20    30    31    1
    21    31    32    2
    22     1     4    1
    23     4     5    1
    24     4     6    1
    25     4     7    1
    26    10    12    1
    27    12    13   ar
    28    13    14   ar
    29    14    15   ar
    30    15    16   ar
    31    16    18    1
    32    18    19   am
    33    18    20    2
    34    16    17   ar
    35    32    24    1
    36    17    12   ar
    37    31    26    1
    38    38    33    1
    39     2     3    1
    40    19    21    1
    41    19    22    1
@<TRIPOS>MOLECULE
*****
 38 41 0 0 0
SMALL
GASTEIGER

@<TRIPOS>ATOM
      1 C          63.6447   87.4356   15.7206 C.3     1  UNL1        0.1812
      2 O          64.1186   87.3892   14.2982 O.3     1  UNL1       -0.3784
      3 H          64.5021   86.5176   14.1134 H       1  UNL1        0.2106
      4 C          63.1708   87.4819   17.1430 C.3     1  UNL1        0.4197
      5 F          62.6969   87.5284   18.5655 F       1  UNL1       -0.1676
      6 F          63.8878   86.1946   17.4239 F       1  UNL1       -0.1676
      7 F          62.4539   88.7692   16.8622 F       1  UNL1       -0.1676
      8 C          64.1062   86.0223   15.9205 C.3     1  UNL1        0.0398
      9 C          65.2541   84.9919   14.4643 C.3     1  UNL1        0.0045
     10 C          63.8127   84.9832   14.8793 C.3     1  UNL1        0.0215
     11 C          62.3713   84.9745   15.2943 C.3     1  UNL1        0.0045
     12 C          63.5192   83.9441   13.8381 C.ar    1  UNL1       -0.0226
     13 C          64.0244   84.1226   12.4370 C.ar    1  UNL1       -0.0043
     14 C          63.7310   83.0835   11.3958 C.ar    1  UNL1       -0.0002
     15 C          62.9323   81.8658   11.7557 C.ar    1  UNL1        0.0045
     16 C          62.4271   81.6873   13.1568 C.ar    1  UNL1        0.0528
     17 C          62.7206   82.7264   14.1979 C.ar    1  UNL1        0.0002
     18 C          61.6285   80.4696   13.5167 C.2     1  UNL1        0.2427
     19 N          60.3017   80.6181   14.2005 N.am    1  UNL1       -0.3253
     20 O          62.1566   79.1036   13.1928 O.2     1  UNL1       -0.2704
     21 H          59.9550   81.5147   14.4130 H       1  UNL1        0.1453
     22 H          59.7775   79.8189   14.4367 H       1  UNL1        0.1453
     23 C          63.1832   88.8487   15.5208 C.3     1  UNL1        0.0811
     24 C          64.0601   89.8291   14.7998 C.2     1  UNL1        0.0614
     25 C          63.6693   90.6505   13.6070 C.2     1  UNL1        0.0163
     26 C          64.8494   91.4894   13.2150 C.2     1  UNL1        0.0264
     27 C          65.0487   92.4899   12.1153 C.2     1  UNL1        0.0903
     28 C          66.3682   93.1876   11.9663 C.2     1  UNL1        0.3192
     29 N          67.4884   92.8847   12.9168 N.2     1  UNL1       -0.0585
     30 C          67.2890   91.8842   14.0165 C.3     1  UNL1        0.3085
     31 C          65.9696   91.1866   14.1656 C.2     1  UNL1        0.1121
     32 N          65.4818   90.1605   15.1451 N.2     1  UNL1       -0.2495
     33 N          66.5676   94.1881   10.8666 N.pl3   1  UNL1       -0.1860
     34 C          67.1684   93.7580    9.5612 C.3     1  UNL1        0.2346
     35 C          67.3677   94.7585    8.4615 C.3     1  UNL1        0.1929
     36 O          66.9662   96.1891    8.6673 O.3     1  UNL1       -0.3449
     37 C          66.3654   96.6191    9.9726 C.3     1  UNL1        0.1929
     38 C          66.1661   95.6186   11.0723 C.3     1  UNL1        0.2346
@<TRIPOS>BOND
     1     9    10    1
     2    10    11    1
     3    10     8    1
     4     8     1    1
     5     1     2    1
     6     1    23    1
     7    23    24    1
     8    24    25    2
     9    25    26    1
    10    26    27    2
    11    27    28    1
    12    28    33    1
    13    33    34    1
    14    34    35    1
    15    35    36    1
    16    36    37    1
    17    37    38    1
    18    28    29    2
    19    29    30    1
    20    30    31    1
    21    31    32    2
    22     1     4    1
    23     4     5    1
    24     4     6    1
    25     4     7    1
    26    10    12    1
    27    12    13   ar
    28    13    14   ar
    29    14    15   ar
    30    15    16   ar
    31    16    18    1
    32    18    19   am
    33    18    20    2
    34    16    17   ar
    35    32    24    1
    36    17    12   ar
    37    31    26    1
    38    38    33    1
    39     2     3    1
    40    19    21    1
    41    19    22    1
@<TRIPOS>MOLECULE
*****
 38 41 0 0 0
SMALL
GASTEIGER

@<TRIPOS>ATOM
      1 C          65.7159   91.4817   14.5786 C.3     1  UNL1        0.1812
      2 O          65.6578   90.8550   13.2170 O.3     1  UNL1       -0.3784
      3 H          66.4169   91.1524   12.6915 H       1  UNL1        0.2106
      4 C          65.7741   92.1084   15.9401 C.3     1  UNL1        0.4197
      5 F          65.8322   92.7351   17.3017 F       1  UNL1       -0.1676
      6 F          67.2710   92.1553   15.8546 F       1  UNL1       -0.1676
      7 F          64.2773   92.0615   16.0256 F       1  UNL1       -0.1676
      8 C          66.9817   92.1910   14.1981 C.3     1  UNL1        0.0398
      9 C          68.3685   91.6168   12.6990 C.3     1  UNL1        0.0045
     10 C          67.2223   92.5817   12.7700 C.3     1  UNL1        0.0215
     11 C          66.0761   93.5467   12.8409 C.3     1  UNL1        0.0045
     12 C          67.4628   92.9724   11.3419 C.ar    1  UNL1       -0.0226
     13 C          68.1698   92.0285   10.4149 C.ar    1  UNL1       -0.0043
     14 C          68.4103   92.4192    8.9868 C.ar    1  UNL1       -0.0002
     15 C          67.9439   93.7539    8.4857 C.ar    1  UNL1        0.0045
     16 C          67.2370   94.6978    9.4126 C.ar    1  UNL1        0.0528
     17 C          66.9964   94.3071   10.8407 C.ar    1  UNL1        0.0002
     18 C          66.7705   96.0325    8.9114 C.2     1  UNL1        0.2427
     19 N          67.6617   96.8555    8.0290 N.am    1  UNL1       -0.3253
     20 O          65.4130   96.5441    9.2926 O.2     1  UNL1       -0.2704
     21 H          68.5526   96.5196    7.7788 H       1  UNL1        0.1453
     22 H          67.3556   97.7314    7.7001 H       1  UNL1        0.1453
     23 C          64.4502   90.7725   14.9591 C.3     1  UNL1        0.0811
     24 C          64.0851   89.4799   14.2915 C.2     1  UNL1        0.0614
     25 C          64.3635   88.1044   14.8214 C.2     1  UNL1        0.0163
     26 C          63.8279   87.1101   13.8342 C.2     1  UNL1        0.0264
     27 C          63.8164   85.6102   13.8260 C.2     1  UNL1        0.0903
     28 C          63.1954   84.8711   12.6778 C.2     1  UNL1        0.3192
     29 N          62.5861   85.6321   11.5378 N.2     1  UNL1       -0.0585
     30 C          62.5976   87.1320   11.5459 C.3     1  UNL1        0.3085
     31 C          63.2185   87.8710   12.6941 C.2     1  UNL1        0.1121
     32 N          63.3774   89.3356   12.9768 N.2     1  UNL1       -0.2495
     33 N          63.1839   83.3712   12.6696 N.pl3   1  UNL1       -0.1860
     34 C          63.5407   82.6117   13.9130 C.3     1  UNL1        0.2346
     35 C          63.5292   81.1118   13.9049 C.3     1  UNL1        0.1929
     36 O          63.1609   80.3713   12.6533 O.3     1  UNL1       -0.3449
     37 C          62.8042   81.1309   11.4101 C.3     1  UNL1        0.1929
     38 C          62.8157   82.6308   11.4182 C.3     1  UNL1        0.2346
@<TRIPOS>BOND
     1     9    10    1
     2    10    11    1
     3    10     8    1
     4     8     1    1
     5     1     2    1
     6     1    23    1
     7    23    24    1
     8    24    25    2
     9    25    26    1
    10    26    27    2
    11    27    28    1
    12    28    33    1
    13    33    34    1
    14    34    35    1
    15    35    36    1
    16    36    37    1
    17    37    38    1
    18    28    29    2
    19    29    30    1
    20    30    31    1
    21    31    32    2
    22     1     4    1
    23     4     5    1
    24     4     6    1
    25     4     7    1
    26    10    12    1
    27    12    13   ar
    28    13    14   ar
    29    14    15   ar
    30    15    16   ar
    31    16    18    1
    32    18    19   am
    33    18    20    2
    34    16    17   ar
    35    32    24    1
    36    17    12   ar
    37    31    26    1
    38    38    33    1
    39     2     3    1
    40    19    21    1
    41    19    22    1
@<TRIPOS>MOLECULE
*****
 38 41 0 0 0
SMALL
GASTEIGER

@<TRIPOS>ATOM
      1 C          65.4519   91.3892   14.8318 C.3     1  UNL1        0.1812
      2 O          65.6527   90.6689   13.5315 O.3     1  UNL1       -0.3784
      3 H          66.4100   91.0529   13.0627 H       1  UNL1        0.2106
      4 C          65.2512   92.1096   16.1321 C.3     1  UNL1        0.4197
      5 F          65.0505   92.8300   17.4324 F       1  UNL1       -0.1676
      6 F          63.7949   91.7510   16.1059 F       1  UNL1       -0.1676
      7 F          66.7075   92.4681   16.1582 F       1  UNL1       -0.1676
      8 C          66.6232   92.2739   14.5226 C.3     1  UNL1        0.0398
      9 C          68.2071   91.7631   13.2070 C.3     1  UNL1        0.0045
     10 C          66.9643   92.5960   13.0978 C.3     1  UNL1        0.0215
     11 C          65.7215   93.4289   12.9886 C.3     1  UNL1        0.0045
     12 C          67.3054   92.9181   11.6731 C.ar    1  UNL1       -0.0226
     13 C          68.0453   91.9184   10.8346 C.ar    1  UNL1       -0.0043
     14 C          68.3864   92.2405    9.4098 C.ar    1  UNL1       -0.0002
     15 C          67.9875   93.5624    8.8236 C.ar    1  UNL1        0.0045
     16 C          67.2476   94.5621    9.6621 C.ar    1  UNL1        0.0528
     17 C          66.9065   94.2399   11.0868 C.ar    1  UNL1        0.0002
     18 C          66.8487   95.8839    9.0759 C.2     1  UNL1        0.2427
     19 N          67.7975   96.6243    8.1806 N.am    1  UNL1       -0.3253
     20 O          65.5010   96.4654    9.3849 O.2     1  UNL1       -0.2704
     21 H          68.6821   96.2426    7.9777 H       1  UNL1        0.1453
     22 H          67.5358   97.4918    7.7958 H       1  UNL1        0.1453
     23 C          64.2807   90.5047   15.1410 C.3     1  UNL1        0.0811
     24 C          63.8744   89.4327   14.1736 C.2     1  UNL1        0.0614
     25 C          63.2547   89.6508   12.8251 C.2     1  UNL1        0.0163
     26 C          63.0138   88.3074   12.2029 C.2     1  UNL1        0.0264
     27 C          62.4265   87.9033   10.8831 C.2     1  UNL1        0.0903
     28 C          62.3100   86.4507   10.5273 C.2     1  UNL1        0.3192
     29 N          62.7808   85.4023   11.4913 N.2     1  UNL1       -0.0585
     30 C          63.3681   85.8064   12.8110 C.3     1  UNL1        0.3085
     31 C          63.4845   87.2589   13.1669 C.2     1  UNL1        0.1121
     32 N          64.0165   87.9545   14.3849 N.2     1  UNL1       -0.2495
     33 N          61.7228   86.0466    9.2075 N.pl3   1  UNL1       -0.1860
     34 C          62.5559   85.2893    8.2163 C.3     1  UNL1        0.2346
     35 C          61.9687   84.8852    6.8965 C.3     1  UNL1        0.1929
     36 O          60.5483   85.2383    6.5680 O.3     1  UNL1       -0.3449
     37 C          59.7152   85.9955    7.5592 C.3     1  UNL1        0.1929
     38 C          60.3025   86.3996    8.8790 C.3     1  UNL1        0.2346
@<TRIPOS>BOND
     1     9    10    1
     2    10    11    1
     3    10     8    1
     4     8     1    1
     5     1     2    1
     6     1    23    1
     7    23    24    1
     8    24    25    2
     9    25    26    1
    10    26    27    2
    11    27    28    1
    12    28    33    1
    13    33    34    1
    14    34    35    1
    15    35    36    1
    16    36    37    1
    17    37    38    1
    18    28    29    2
    19    29    30    1
    20    30    31    1
    21    31    32    2
    22     1     4    1
    23     4     5    1
    24     4     6    1
    25     4     7    1
    26    10    12    1
    27    12    13   ar
    28    13    14   ar
    29    14    15   ar
    30    15    16   ar
    31    16    18    1
    32    18    19   am
    33    18    20    2
    34    16    17   ar
    35    32    24    1
    36    17    12   ar
    37    31    26    1
    38    38    33    1
    39     2     3    1
    40    19    21    1
    41    19    22    1
@<TRIPOS>MOLECULE
*****
 38 41 0 0 0
SMALL
GASTEIGER

@<TRIPOS>ATOM
      1 C          61.1513   87.3416    9.4474 C.3     1  UNL1        0.1812
      2 O          62.5053   87.5391   10.0619 O.3     1  UNL1       -0.3784
      3 H          63.0498   86.7519    9.9045 H       1  UNL1        0.2106
      4 C          59.7974   87.1441    8.8329 C.3     1  UNL1        0.4197
      5 F          58.4433   86.9466    8.2184 F       1  UNL1       -0.1676
      6 F          60.4375   86.5505    7.6131 F       1  UNL1       -0.1676
      7 F          59.1572   87.7376   10.0527 F       1  UNL1       -0.1676
      8 C          61.5656   85.9805    8.9720 C.3     1  UNL1        0.0398
      9 C          63.1994   84.6444    8.7589 C.3     1  UNL1        0.0045
     10 C          62.3089   85.0586    9.8927 C.3     1  UNL1        0.0215
     11 C          61.4183   85.4728   11.0264 C.3     1  UNL1        0.0045
     12 C          63.0522   84.1367   10.8133 C.ar    1  UNL1       -0.0226
     13 C          63.9231   83.0541   10.2481 C.ar    1  UNL1       -0.0043
     14 C          64.6664   82.1322   11.1687 C.ar    1  UNL1       -0.0002
     15 C          64.5387   82.2929   12.6547 C.ar    1  UNL1        0.0045
     16 C          63.6678   83.3755   13.2199 C.ar    1  UNL1        0.0528
     17 C          62.9245   84.2974   12.2992 C.ar    1  UNL1        0.0002
     18 C          63.5401   83.5362   14.7058 C.2     1  UNL1        0.2427
     19 N          62.5864   84.5463   15.2717 N.am    1  UNL1       -0.3253
     20 O          64.3661   82.6869   15.6258 O.2     1  UNL1       -0.2704
     21 H          62.0443   85.1037   14.6679 H       1  UNL1        0.1453
     22 H          62.5026   84.6518   16.2470 H       1  UNL1        0.1453
     23 C          60.7371   88.7026    9.9228 C.3     1  UNL1        0.0811
     24 C          61.7771   89.7019   10.3345 C.2     1  UNL1        0.0614
     25 C          62.3490   90.7863    9.4700 C.2     1  UNL1        0.0163
     26 C          63.3533   91.5470   10.2842 C.2     1  UNL1        0.0264
     27 C          64.2296   92.7196    9.9569 C.2     1  UNL1        0.0903
     28 C          65.1548   93.2779   10.9973 C.2     1  UNL1        0.3192
     29 N          65.2037   92.6636   12.3649 N.2     1  UNL1       -0.0585
     30 C          64.3273   91.4910   12.6921 C.3     1  UNL1        0.3085
     31 C          63.4022   90.9327   11.6518 C.2     1  UNL1        0.1121
     32 N          62.4280   89.7924   11.6829 N.2     1  UNL1       -0.2495
     33 N          66.0311   94.4505   10.6701 N.pl3   1  UNL1       -0.1860
     34 C          66.9485   94.3935    9.4846 C.3     1  UNL1        0.2346
     35 C          67.8248   95.5661    9.1574 C.3     1  UNL1        0.1929
     36 O          67.7837   96.7957   10.0156 O.3     1  UNL1       -0.3449
     37 C          66.8663   96.8527   11.2009 C.3     1  UNL1        0.1929
     38 C          65.9900   95.6801   11.5282 C.3     1  UNL1        0.2346
@<TRIPOS>BOND
     1     9    10    1
     2    10    11    1
     3    10     8    1
     4     8     1    1
     5     1     2    1
     6     1    23    1
     7    23    24    1
     8    24    25    2
     9    25    26    1
    10    26    27    2
    11    27    28    1
    12    28    33    1
    13    33    34    1
    14    34    35    1
    15    35    36    1
    16    36    37    1
    17    37    38    1
    18    28    29    2
    19    29    30    1
    20    30    31    1
    21    31    32    2
    22     1     4    1
    23     4     5    1
    24     4     6    1
    25     4     7    1
    26    10    12    1
    27    12    13   ar
    28    13    14   ar
    29    14    15   ar
    30    15    16   ar
    31    16    18    1
    32    18    19   am
    33    18    20    2
    34    16    17   ar
    35    32    24    1
    36    17    12   ar
    37    31    26    1
    38    38    33    1
    39     2     3    1
    40    19    21    1
    41    19    22    1
@<TRIPOS>MOLECULE
*****
 38 41 0 0 0
SMALL
GASTEIGER

@<TRIPOS>ATOM
      1 C          61.3546   87.6360    9.3273 C.3     1  UNL1        0.1812
      2 O          62.7593   87.7561    9.8394 O.3     1  UNL1       -0.3784
      3 H          63.1975   86.8923    9.7870 H       1  UNL1        0.2106
      4 C          59.9499   87.5160    8.8152 C.3     1  UNL1        0.4197
      5 F          58.5451   87.3959    8.3031 F       1  UNL1       -0.1676
      6 F          59.4547   88.3112    9.9868 F       1  UNL1       -0.1676
      7 F          60.4449   86.7208    7.6437 F       1  UNL1       -0.1676
      8 C          61.5766   86.1768    9.0602 C.3     1  UNL1        0.0398
      9 C          63.0721   84.6729    9.1047 C.3     1  UNL1        0.0045
     10 C          62.1690   85.3012   10.1243 C.3     1  UNL1        0.0215
     11 C          61.2659   85.9294   11.1440 C.3     1  UNL1        0.0045
     12 C          62.7614   84.4256   11.1885 C.ar    1  UNL1       -0.0226
     13 C          63.6908   85.0110   12.2100 C.ar    1  UNL1       -0.0043
     14 C          64.2832   84.1354   13.2742 C.ar    1  UNL1       -0.0002
     15 C          63.9461   82.6744   13.3168 C.ar    1  UNL1        0.0045
     16 C          63.0168   82.0890   12.2953 C.ar    1  UNL1        0.0528
     17 C          62.4244   82.9646   11.2311 C.ar    1  UNL1        0.0002
     18 C          62.6797   80.6279   12.3379 C.2     1  UNL1        0.2427
     19 N          62.0502   80.0389   13.5654 N.am    1  UNL1       -0.3253
     20 O          62.9722   79.7559   11.1530 O.2     1  UNL1       -0.2704
     21 H          61.8583   80.6113   14.3431 H       1  UNL1        0.1453
     22 H          61.8290   79.0800   13.5934 H       1  UNL1        0.1453
     23 C          61.1325   89.0952    9.5945 C.3     1  UNL1        0.0811
     24 C          62.2082   89.9100   10.2494 C.2     1  UNL1        0.0614
     25 C          62.7928   89.6681   11.6096 C.2     1  UNL1        0.0163
     26 C          63.8341   90.7183   11.8600 C.2     1  UNL1        0.0264
     27 C          64.7362   90.9784   13.0299 C.2     1  UNL1        0.0903
     28 C          65.6974   92.1295   12.9944 C.2     1  UNL1        0.3192
     29 N          65.7564   93.0204   11.7891 N.2     1  UNL1       -0.0585
     30 C          64.8544   92.7603   10.6192 C.3     1  UNL1        0.3085
     31 C          63.8932   91.6092   10.6547 C.2     1  UNL1        0.1121
     32 N          62.8883   91.1096    9.6592 N.2     1  UNL1       -0.2495
     33 N          66.5994   92.3897   14.1643 N.pl3   1  UNL1       -0.1860
     34 C          66.0203   92.5332   15.5406 C.3     1  UNL1        0.2346
     35 C          66.9223   92.7934   16.7104 C.3     1  UNL1        0.1929
     36 O          68.4036   92.9099   16.5040 O.3     1  UNL1       -0.3449
     37 C          68.9826   92.7663   15.1278 C.3     1  UNL1        0.1929
     38 C          68.0805   92.5062   13.9579 C.3     1  UNL1        0.2346
@<TRIPOS>BOND
     1     9    10    1
     2    10    11    1
     3    10     8    1
     4     8     1    1
     5     1     2    1
     6     1    23    1
     7    23    24    1
     8    24    25    2
     9    25    26    1
    10    26    27    2
    11    27    28    1
    12    28    33    1
    13    33    34    1
    14    34    35    1
    15    35    36    1
    16    36    37    1
    17    37    38    1
    18    28    29    2
    19    29    30    1
    20    30    31    1
    21    31    32    2
    22     1     4    1
    23     4     5    1
    24     4     6    1
    25     4     7    1
    26    10    12    1
    27    12    13   ar
    28    13    14   ar
    29    14    15   ar
    30    15    16   ar
    31    16    18    1
    32    18    19   am
    33    18    20    2
    34    16    17   ar
    35    32    24    1
    36    17    12   ar
    37    31    26    1
    38    38    33    1
    39     2     3    1
    40    19    21    1
    41    19    22    1
