@<TRIPOS>MOLECULE
*****
 29 32 0 0 0
SMALL
GASTEIGER

@<TRIPOS>ATOM
      1 C          61.7226   88.8244   11.7508 C.ar    1  UNL1        0.0473
      2 C          62.4064   87.4906   11.8089 C.ar    1  UNL1        0.0350
      3 C          61.9488   86.3737   10.9183 C.ar    1  UNL1        0.1023
      4 N          60.8073   86.5906    9.9696 N.ar    1  UNL1       -0.2425
      5 C          60.1235   87.9244    9.9115 C.ar    1  UNL1        0.0958
      6 C          60.5811   89.0413   10.8021 C.ar    1  UNL1        0.0107
      7 C          59.8973   90.3750   10.7439 C.3     1  UNL1        0.0340
      8 C          62.6326   85.0399   10.9764 C.ar    1  UNL1        0.1258
      9 N          62.5814   84.2250   12.2348 N.ar    1  UNL1       -0.2459
     10 C          63.2652   82.8912   12.2929 C.ar    1  UNL1        0.0595
     11 C          63.2140   82.0763   13.5512 C.3     1  UNL1        0.0521
     12 C          64.0003   82.3723   11.0926 C.ar    1  UNL1        0.0171
     13 C          64.0515   83.1872    9.8344 C.ar    1  UNL1        0.0325
     14 C          63.3676   84.5210    9.7763 C.ar    1  UNL1        0.1591
     15 F          63.4188   85.3359    8.5180 F       1  UNL1       -0.2025
     16 N          62.1802   89.9412   12.6414 N.pl3   1  UNL1       -0.3125
     17 H          61.7448   90.0862   13.5124 H       1  UNL1        0.1522
     18 C          64.0947   91.0455   14.6701 C.ar    1  UNL1        0.1413
     19 C          65.0519   91.5976   15.6844 C.ar    1  UNL1        0.0370
     20 C          66.1728   92.4937   15.2479 C.ar    1  UNL1        0.0047
     21 C          66.3366   92.8376   13.7971 C.ar    1  UNL1        0.0193
     22 C          65.3794   92.2855   12.7828 C.ar    1  UNL1        0.0854
     23 N          65.5431   92.6294   11.3319 N.ar    1  UNL1       -0.2437
     24 C          64.5859   92.0773   10.3176 C.ar    1  UNL1        0.1001
     25 C          63.4649   91.1812   10.7541 C.ar    1  UNL1        0.0354
     26 C          63.3012   90.8373   12.2049 C.ar    1  UNL1        0.0542
     27 C          64.2584   91.3894   13.2193 C.ar    1  UNL1        0.0650
     28 C          63.1045   89.3430   16.3645 C.3     1  UNL1        0.2525
     29 O          62.9737   90.1494   15.1066 O.3     1  UNL1       -0.4713
@<TRIPOS>BOND
     1    28    29    1
     2    29    18    1
     3    18    19   ar
     4    19    20   ar
     5    20    21   ar
     6    21    22   ar
     7    22    23   ar
     8    23    24   ar
     9    24    25   ar
    10    25    26   ar
    11    26    16    1
    12    16     1    1
    13     1     2   ar
    14     2     3   ar
    15     3     8    1
    16     8     9   ar
    17     9    10   ar
    18    10    11    1
    19    10    12   ar
    20    12    13   ar
    21    13    14   ar
    22    14    15    1
    23     3     4   ar
    24     4     5   ar
    25     5     6   ar
    26     6     7    1
    27    26    27   ar
    28    27    18   ar
    29    27    22   ar
    30     6     1   ar
    31    14     8   ar
    32    16    17    1
@<TRIPOS>MOLECULE
*****
 29 32 0 0 0
SMALL
GASTEIGER

@<TRIPOS>ATOM
      1 C          62.3658   89.0520   11.5862 C.ar    1  UNL1        0.0473
      2 C          62.9368   87.6678   11.6739 C.ar    1  UNL1        0.0350
      3 C          62.1192   86.4899   11.2332 C.ar    1  UNL1        0.1023
      4 N          60.7307   86.6963   10.7047 N.ar    1  UNL1       -0.2425
      5 C          60.1596   88.0805   10.6170 C.ar    1  UNL1        0.0958
      6 C          60.9771   89.2584   11.0577 C.ar    1  UNL1        0.0107
      7 C          60.4061   90.6427   10.9699 C.3     1  UNL1        0.0340
      8 C          62.6903   85.1056   11.3209 C.ar    1  UNL1        0.1258
      9 N          62.6218   84.3465   12.6129 N.ar    1  UNL1       -0.2459
     10 C          63.1928   82.9623   12.7007 C.ar    1  UNL1        0.0595
     11 C          63.1243   82.2032   13.9926 C.3     1  UNL1        0.0521
     12 C          63.8324   82.3371   11.4964 C.ar    1  UNL1        0.0171
     13 C          63.9009   83.0961   10.2045 C.ar    1  UNL1        0.0325
     14 C          63.3298   84.4804   10.1167 C.ar    1  UNL1        0.1591
     15 F          63.3983   85.2395    8.8248 F       1  UNL1       -0.2025
     16 N          63.1833   90.2299   12.0268 N.pl3   1  UNL1       -0.3125
     17 H          63.5077   90.8801   11.3626 H       1  UNL1        0.1522
     18 C          65.3447   92.1413   12.8484 C.ar    1  UNL1        0.1413
     19 C          66.4254   93.0970   13.2592 C.ar    1  UNL1        0.0370
     20 C          66.7486   93.2842   14.7119 C.ar    1  UNL1        0.0047
     21 C          65.9911   92.5159   15.7539 C.ar    1  UNL1        0.0193
     22 C          64.9104   91.5602   15.3431 C.ar    1  UNL1        0.0854
     23 N          64.1528   90.7918   16.3851 N.ar    1  UNL1       -0.2437
     24 C          63.0721   89.8361   15.9743 C.ar    1  UNL1        0.1001
     25 C          62.7490   89.6488   14.5216 C.ar    1  UNL1        0.0354
     26 C          63.5064   90.4172   13.4796 C.ar    1  UNL1        0.0542
     27 C          64.5872   91.3729   13.8903 C.ar    1  UNL1        0.0650
     28 C          65.4411   92.9892   10.3945 C.3     1  UNL1        0.2525
     29 O          65.0215   91.9540   11.3956 O.3     1  UNL1       -0.4713
@<TRIPOS>BOND
     1    28    29    1
     2    29    18    1
     3    18    19   ar
     4    19    20   ar
     5    20    21   ar
     6    21    22   ar
     7    22    23   ar
     8    23    24   ar
     9    24    25   ar
    10    25    26   ar
    11    26    16    1
    12    16     1    1
    13     1     2   ar
    14     2     3   ar
    15     3     8    1
    16     8     9   ar
    17     9    10   ar
    18    10    11    1
    19    10    12   ar
    20    12    13   ar
    21    13    14   ar
    22    14    15    1
    23     3     4   ar
    24     4     5   ar
    25     5     6   ar
    26     6     7    1
    27    26    27   ar
    28    27    18   ar
    29    27    22   ar
    30     6     1   ar
    31    14     8   ar
    32    16    17    1
@<TRIPOS>MOLECULE
*****
 29 32 0 0 0
SMALL
GASTEIGER

@<TRIPOS>ATOM
      1 C          62.0309   88.3118   11.6600 C.ar    1  UNL1        0.0473
      2 C          63.1678   89.1467   12.1701 C.ar    1  UNL1        0.0350
      3 C          63.1779   90.6273   11.9296 C.ar    1  UNL1        0.1023
      4 N          62.0511   91.2729   11.1789 N.ar    1  UNL1       -0.2425
      5 C          60.9142   90.4379   10.6688 C.ar    1  UNL1        0.0958
      6 C          60.9041   88.9574   10.9093 C.ar    1  UNL1        0.0107
      7 C          59.7671   88.1224   10.3992 C.3     1  UNL1        0.0340
      8 C          64.3149   91.4623   12.4397 C.ar    1  UNL1        0.1258
      9 N          64.6251   91.4907   13.9070 N.ar    1  UNL1       -0.2459
     10 C          65.7620   92.3257   14.4171 C.ar    1  UNL1        0.0595
     11 C          66.0723   92.3542   15.8844 C.3     1  UNL1        0.0521
     12 C          66.5887   93.1322   13.4599 C.ar    1  UNL1        0.0171
     13 C          66.2784   93.1038   11.9927 C.ar    1  UNL1        0.0325
     14 C          65.1415   92.2688   11.4825 C.ar    1  UNL1        0.1591
     15 F          64.8313   92.2403   10.0153 F       1  UNL1       -0.2025
     16 N          62.0208   86.8312   11.9006 N.pl3   1  UNL1       -0.3125
     17 H          61.6863   86.4736   12.7546 H       1  UNL1        0.1522
     18 C          63.2516   84.2069   12.6738 C.ar    1  UNL1        0.1413
     19 C          63.8670   82.8947   13.0604 C.ar    1  UNL1        0.0370
     20 C          64.3665   81.9591   11.9997 C.ar    1  UNL1        0.0047
     21 C          64.2506   82.3356   10.5524 C.ar    1  UNL1        0.0193
     22 C          63.6352   83.6478   10.1658 C.ar    1  UNL1        0.0854
     23 N          63.5193   84.0244    8.7184 N.ar    1  UNL1       -0.2437
     24 C          62.9039   85.3365    8.3318 C.ar    1  UNL1        0.1001
     25 C          62.4044   86.2721    9.3925 C.ar    1  UNL1        0.0354
     26 C          62.5203   85.8956   10.8399 C.ar    1  UNL1        0.0542
     27 C          63.1357   84.5834   11.2265 C.ar    1  UNL1        0.0650
     28 C          63.4343   85.1959   15.0693 C.3     1  UNL1        0.2525
     29 O          62.7521   85.1425   13.7345 O.3     1  UNL1       -0.4713
@<TRIPOS>BOND
     1    28    29    1
     2    29    18    1
     3    18    19   ar
     4    19    20   ar
     5    20    21   ar
     6    21    22   ar
     7    22    23   ar
     8    23    24   ar
     9    24    25   ar
    10    25    26   ar
    11    26    16    1
    12    16     1    1
    13     1     2   ar
    14     2     3   ar
    15     3     8    1
    16     8     9   ar
    17     9    10   ar
    18    10    11    1
    19    10    12   ar
    20    12    13   ar
    21    13    14   ar
    22    14    15    1
    23     3     4   ar
    24     4     5   ar
    25     5     6   ar
    26     6     7    1
    27    26    27   ar
    28    27    18   ar
    29    27    22   ar
    30     6     1   ar
    31    14     8   ar
    32    16    17    1
@<TRIPOS>MOLECULE
*****
 29 32 0 0 0
SMALL
GASTEIGER

@<TRIPOS>ATOM
      1 C          64.0314   90.5387   13.4663 C.ar    1  UNL1        0.0473
      2 C          64.6463   91.2935   12.3251 C.ar    1  UNL1        0.0350
      3 C          65.5772   92.4377   12.5976 C.ar    1  UNL1        0.1023
      4 N          65.8931   92.8272   14.0113 N.ar    1  UNL1       -0.2425
      5 C          65.2783   92.0724   15.1524 C.ar    1  UNL1        0.0958
      6 C          64.3474   90.9282   14.8800 C.ar    1  UNL1        0.0107
      7 C          63.7325   90.1735   16.0211 C.3     1  UNL1        0.0340
      8 C          66.1921   93.1925   11.4564 C.ar    1  UNL1        0.1258
      9 N          65.6135   94.5090   11.0296 N.ar    1  UNL1       -0.2459
     10 C          66.2284   95.2637    9.8884 C.ar    1  UNL1        0.0595
     11 C          65.6500   96.5802    9.4616 C.3     1  UNL1        0.0521
     12 C          67.4219   94.7019    9.1741 C.ar    1  UNL1        0.0171
     13 C          68.0004   93.3855    9.6010 C.ar    1  UNL1        0.0325
     14 C          67.3855   92.6307   10.7421 C.ar    1  UNL1        0.1591
     15 F          67.9639   91.3143   11.1690 F       1  UNL1       -0.2025
     16 N          63.1006   89.3945   13.1938 N.pl3   1  UNL1       -0.3125
     17 H          62.9619   88.6993   13.8770 H       1  UNL1        0.1522
     18 C          62.7534   86.7384   11.8429 C.ar    1  UNL1        0.1413
     19 C          62.5798   85.4104   11.1675 C.ar    1  UNL1        0.0370
     20 C          61.8603   85.3254    9.8541 C.ar    1  UNL1        0.0047
     21 C          61.3143   86.5683    9.2161 C.ar    1  UNL1        0.0193
     22 C          61.4879   87.8963    9.8916 C.ar    1  UNL1        0.0854
     23 N          60.9419   89.1393    9.2536 N.ar    1  UNL1       -0.2437
     24 C          61.1155   90.4673    9.9290 C.ar    1  UNL1        0.1001
     25 C          61.8351   90.5524   11.2424 C.ar    1  UNL1        0.0354
     26 C          62.3810   89.3094   11.8804 C.ar    1  UNL1        0.0542
     27 C          62.2075   87.9813   11.2049 C.ar    1  UNL1        0.0650
     28 C          63.8501   85.5693   13.8875 C.3     1  UNL1        0.2525
     29 O          63.4730   86.8235   13.1563 O.3     1  UNL1       -0.4713
@<TRIPOS>BOND
     1    28    29    1
     2    29    18    1
     3    18    19   ar
     4    19    20   ar
     5    20    21   ar
     6    21    22   ar
     7    22    23   ar
     8    23    24   ar
     9    24    25   ar
    10    25    26   ar
    11    26    16    1
    12    16     1    1
    13     1     2   ar
    14     2     3   ar
    15     3     8    1
    16     8     9   ar
    17     9    10   ar
    18    10    11    1
    19    10    12   ar
    20    12    13   ar
    21    13    14   ar
    22    14    15    1
    23     3     4   ar
    24     4     5   ar
    25     5     6   ar
    26     6     7    1
    27    26    27   ar
    28    27    18   ar
    29    27    22   ar
    30     6     1   ar
    31    14     8   ar
    32    16    17    1
@<TRIPOS>MOLECULE
*****
 29 32 0 0 0
SMALL
GASTEIGER

@<TRIPOS>ATOM
      1 C          63.9774   88.0669   15.2060 C.ar    1  UNL1        0.0473
      2 C          64.0213   86.6946   14.6019 C.ar    1  UNL1        0.0350
      3 C          63.3322   85.5514   15.2863 C.ar    1  UNL1        0.1023
      4 N          62.5993   85.7806   16.5748 N.ar    1  UNL1       -0.2425
      5 C          62.5554   87.1528   17.1789 C.ar    1  UNL1        0.0958
      6 C          63.2444   88.2960   16.4945 C.ar    1  UNL1        0.0107
      7 C          63.2005   89.6682   17.0987 C.3     1  UNL1        0.0340
      8 C          63.3761   84.1792   14.6822 C.ar    1  UNL1        0.1258
      9 N          62.1575   83.3050   14.7171 N.ar    1  UNL1       -0.2459
     10 C          62.2014   81.9328   14.1130 C.ar    1  UNL1        0.0595
     11 C          60.9830   81.0586   14.1479 C.3     1  UNL1        0.0521
     12 C          63.4638   81.4346   13.4740 C.ar    1  UNL1        0.0171
     13 C          64.6822   82.3088   13.4391 C.ar    1  UNL1        0.0325
     14 C          64.6384   83.6810   14.0432 C.ar    1  UNL1        0.1591
     15 F          65.8568   84.5552   14.0083 F       1  UNL1       -0.2025
     16 N          64.6664   89.2100   14.5216 N.pl3   1  UNL1       -0.3125
     17 H          65.4603   89.6230   14.9319 H       1  UNL1        0.1522
     18 C          65.7376   91.7703   13.3823 C.ar    1  UNL1        0.1413
     19 C          66.2731   93.0503   12.8127 C.ar    1  UNL1        0.0370
     20 C          65.7525   93.5642   11.5031 C.ar    1  UNL1        0.0047
     21 C          64.6964   92.7980   10.7632 C.ar    1  UNL1        0.0193
     22 C          64.1609   91.5179   11.3328 C.ar    1  UNL1        0.0854
     23 N          63.1047   90.7517   10.5929 N.ar    1  UNL1       -0.2437
     24 C          62.5692   89.4716   11.1625 C.ar    1  UNL1        0.1001
     25 C          63.0898   88.9577   12.4721 C.ar    1  UNL1        0.0354
     26 C          64.1459   89.7239   13.2120 C.ar    1  UNL1        0.0542
     27 C          64.6815   91.0041   12.6424 C.ar    1  UNL1        0.0650
     28 C          67.6154   91.6736   15.1751 C.3     1  UNL1        0.2525
     29 O          66.2581   91.2564   14.6919 O.3     1  UNL1       -0.4713
@<TRIPOS>BOND
     1    28    29    1
     2    29    18    1
     3    18    19   ar
     4    19    20   ar
     5    20    21   ar
     6    21    22   ar
     7    22    23   ar
     8    23    24   ar
     9    24    25   ar
    10    25    26   ar
    11    26    16    1
    12    16     1    1
    13     1     2   ar
    14     2     3   ar
    15     3     8    1
    16     8     9   ar
    17     9    10   ar
    18    10    11    1
    19    10    12   ar
    20    12    13   ar
    21    13    14   ar
    22    14    15    1
    23     3     4   ar
    24     4     5   ar
    25     5     6   ar
    26     6     7    1
    27    26    27   ar
    28    27    18   ar
    29    27    22   ar
    30     6     1   ar
    31    14     8   ar
    32    16    17    1
@<TRIPOS>MOLECULE
*****
 29 32 0 0 0
SMALL
GASTEIGER

@<TRIPOS>ATOM
      1 C          62.9958   89.6890   12.4080 C.ar    1  UNL1        0.0473
      2 C          62.1258   89.4748   11.2050 C.ar    1  UNL1        0.0350
      3 C          61.8443   88.0830   10.7212 C.ar    1  UNL1        0.1023
      4 N          62.4328   86.9057   11.4405 N.ar    1  UNL1       -0.2425
      5 C          63.3028   87.1199   12.6435 C.ar    1  UNL1        0.0958
      6 C          63.5843   88.5115   13.1272 C.ar    1  UNL1        0.0107
      7 C          64.4543   88.7258   14.3302 C.3     1  UNL1        0.0340
      8 C          60.9743   87.8688    9.5182 C.ar    1  UNL1        0.1258
      9 N          60.5232   89.0425    8.7002 N.ar    1  UNL1       -0.2459
     10 C          59.6532   88.8282    7.4972 C.ar    1  UNL1        0.0595
     11 C          59.2022   90.0018    6.6792 C.3     1  UNL1        0.0521
     12 C          59.2343   87.4403    7.1123 C.ar    1  UNL1        0.0171
     13 C          59.6853   86.2667    7.9303 C.ar    1  UNL1        0.0325
     14 C          60.5553   86.4809    9.1332 C.ar    1  UNL1        0.1591
     15 F          61.0064   85.3073    9.9512 F       1  UNL1       -0.2025
     16 N          63.2772   91.0807   12.8917 N.pl3   1  UNL1       -0.3125
     17 H          62.5928   91.5730   13.4000 H       1  UNL1        0.1522
     18 C          65.0388   91.9747   15.1495 C.ar    1  UNL1        0.1413
     19 C          65.9195   92.4218   16.2784 C.ar    1  UNL1        0.0370
     20 C          67.2439   93.0634   15.9876 C.ar    1  UNL1        0.0047
     21 C          67.6874   93.2580   14.5680 C.ar    1  UNL1        0.0193
     22 C          66.8066   92.8109   13.4392 C.ar    1  UNL1        0.0854
     23 N          67.2502   93.0055   12.0195 N.ar    1  UNL1       -0.2437
     24 C          66.3694   92.5585   10.8906 C.ar    1  UNL1        0.1001
     25 C          65.0451   91.9169   11.1813 C.ar    1  UNL1        0.0354
     26 C          64.6016   91.7223   12.6010 C.ar    1  UNL1        0.0542
     27 C          65.4823   92.1693   13.7299 C.ar    1  UNL1        0.0650
     28 C          63.4834   90.6535   16.7573 C.3     1  UNL1        0.2525
     29 O          63.7145   91.3331   15.4403 O.3     1  UNL1       -0.4713
@<TRIPOS>BOND
     1    28    29    1
     2    29    18    1
     3    18    19   ar
     4    19    20   ar
     5    20    21   ar
     6    21    22   ar
     7    22    23   ar
     8    23    24   ar
     9    24    25   ar
    10    25    26   ar
    11    26    16    1
    12    16     1    1
    13     1     2   ar
    14     2     3   ar
    15     3     8    1
    16     8     9   ar
    17     9    10   ar
    18    10    11    1
    19    10    12   ar
    20    12    13   ar
    21    13    14   ar
    22    14    15    1
    23     3     4   ar
    24     4     5   ar
    25     5     6   ar
    26     6     7    1
    27    26    27   ar
    28    27    18   ar
    29    27    22   ar
    30     6     1   ar
    31    14     8   ar
    32    16    17    1
@<TRIPOS>MOLECULE
*****
 29 32 0 0 0
SMALL
GASTEIGER

@<TRIPOS>ATOM
      1 C          63.0824   89.5203   12.5270 C.ar    1  UNL1        0.0473
      2 C          62.2737   89.1960   11.3060 C.ar    1  UNL1        0.0350
      3 C          62.0575   87.7661   10.9075 C.ar    1  UNL1        0.1023
      4 N          62.6501   86.6606   11.7301 N.ar    1  UNL1       -0.2425
      5 C          63.4588   86.9849   12.9511 C.ar    1  UNL1        0.0958
      6 C          63.6749   88.4147   13.3496 C.ar    1  UNL1        0.0107
      7 C          64.4836   88.7390   14.5706 C.3     1  UNL1        0.0340
      8 C          61.2489   87.4418    9.6865 C.ar    1  UNL1        0.1258
      9 N          61.6484   86.2959    8.8049 N.ar    1  UNL1       -0.2459
     10 C          60.8397   85.9716    7.5839 C.ar    1  UNL1        0.0595
     11 C          61.2392   84.8257    6.7023 C.3     1  UNL1        0.0521
     12 C          59.6315   86.7933    7.2445 C.ar    1  UNL1        0.0171
     13 C          59.2320   87.9392    8.1261 C.ar    1  UNL1        0.0325
     14 C          60.0407   88.2635    9.3471 C.ar    1  UNL1        0.1591
     15 F          59.6412   89.4094   10.2287 F       1  UNL1       -0.2025
     16 N          63.2985   90.9501   12.9255 N.pl3   1  UNL1       -0.3125
     17 H          62.5851   91.4451   13.3893 H       1  UNL1        0.1522
     18 C          65.0315   91.9563   15.1581 C.ar    1  UNL1        0.1413
     19 C          65.8979   92.4594   16.2744 C.ar    1  UNL1        0.0370
     20 C          67.2012   93.1351   15.9661 C.ar    1  UNL1        0.0047
     21 C          67.6379   93.3077   14.5415 C.ar    1  UNL1        0.0193
     22 C          66.7715   92.8046   13.4253 C.ar    1  UNL1        0.0854
     23 N          67.2082   92.9773   12.0006 N.ar    1  UNL1       -0.2437
     24 C          66.3417   92.4742   10.8844 C.ar    1  UNL1        0.1001
     25 C          65.0385   91.7985   11.1926 C.ar    1  UNL1        0.0354
     26 C          64.6018   91.6258   12.6172 C.ar    1  UNL1        0.0542
     27 C          65.4682   92.1289   13.7336 C.ar    1  UNL1        0.0650
     28 C          63.5177   90.6312   16.8020 C.3     1  UNL1        0.2525
     29 O          63.7283   91.2806   15.4664 O.3     1  UNL1       -0.4713
@<TRIPOS>BOND
     1    28    29    1
     2    29    18    1
     3    18    19   ar
     4    19    20   ar
     5    20    21   ar
     6    21    22   ar
     7    22    23   ar
     8    23    24   ar
     9    24    25   ar
    10    25    26   ar
    11    26    16    1
    12    16     1    1
    13     1     2   ar
    14     2     3   ar
    15     3     8    1
    16     8     9   ar
    17     9    10   ar
    18    10    11    1
    19    10    12   ar
    20    12    13   ar
    21    13    14   ar
    22    14    15    1
    23     3     4   ar
    24     4     5   ar
    25     5     6   ar
    26     6     7    1
    27    26    27   ar
    28    27    18   ar
    29    27    22   ar
    30     6     1   ar
    31    14     8   ar
    32    16    17    1
@<TRIPOS>MOLECULE
*****
 29 32 0 0 0
SMALL
GASTEIGER

@<TRIPOS>ATOM
      1 C          63.9042   87.9152   14.9908 C.ar    1  UNL1        0.0473
      2 C          64.5409   89.0695   14.2752 C.ar    1  UNL1        0.0350
      3 C          64.4878   90.4442   14.8734 C.ar    1  UNL1        0.1023
      4 N          63.7981   90.6643   16.1870 N.ar    1  UNL1       -0.2425
      5 C          63.1615   89.5099   16.9026 C.ar    1  UNL1        0.0958
      6 C          63.2145   88.1354   16.3045 C.ar    1  UNL1        0.0107
      7 C          62.5779   86.9810   17.0201 C.3     1  UNL1        0.0340
      8 C          65.1245   91.5985   14.1578 C.ar    1  UNL1        0.1258
      9 N          64.9122   91.7763   12.6835 N.ar    1  UNL1       -0.2459
     10 C          65.5489   92.9307   11.9679 C.ar    1  UNL1        0.0595
     11 C          65.3366   93.1084   10.4937 C.3     1  UNL1        0.0521
     12 C          66.3978   93.9073   12.7266 C.ar    1  UNL1        0.0171
     13 C          66.6100   93.7295   14.2008 C.ar    1  UNL1        0.0325
     14 C          65.9734   92.5752   14.9164 C.ar    1  UNL1        0.1591
     15 F          66.1856   92.3974   16.3906 F       1  UNL1       -0.2025
     16 N          63.9573   86.5406   14.3927 N.pl3   1  UNL1       -0.3125
     17 H          64.3409   85.7943   14.9075 H       1  UNL1        0.1522
     18 C          64.2106   83.8295   13.1333 C.ar    1  UNL1        0.1413
     19 C          64.3373   82.4740   12.5037 C.ar    1  UNL1        0.0370
     20 C          63.8058   82.2366   11.1212 C.ar    1  UNL1        0.0047
     21 C          63.1476   83.3547   10.3685 C.ar    1  UNL1        0.0193
     22 C          63.0210   84.7102   10.9981 C.ar    1  UNL1        0.0854
     23 N          62.3628   85.8283   10.2454 N.ar    1  UNL1       -0.2437
     24 C          62.2361   87.1838   10.8750 C.ar    1  UNL1        0.1001
     25 C          62.7676   87.4213   12.2575 C.ar    1  UNL1        0.0354
     26 C          63.4258   86.3032   13.0102 C.ar    1  UNL1        0.0542
     27 C          63.5525   84.9476   12.3806 C.ar    1  UNL1        0.0650
     28 C          63.9725   83.5826   15.7086 C.3     1  UNL1        0.2525
     29 O          64.7421   84.0670   14.5158 O.3     1  UNL1       -0.4713
@<TRIPOS>BOND
     1    28    29    1
     2    29    18    1
     3    18    19   ar
     4    19    20   ar
     5    20    21   ar
     6    21    22   ar
     7    22    23   ar
     8    23    24   ar
     9    24    25   ar
    10    25    26   ar
    11    26    16    1
    12    16     1    1
    13     1     2   ar
    14     2     3   ar
    15     3     8    1
    16     8     9   ar
    17     9    10   ar
    18    10    11    1
    19    10    12   ar
    20    12    13   ar
    21    13    14   ar
    22    14    15    1
    23     3     4   ar
    24     4     5   ar
    25     5     6   ar
    26     6     7    1
    27    26    27   ar
    28    27    18   ar
    29    27    22   ar
    30     6     1   ar
    31    14     8   ar
    32    16    17    1
@<TRIPOS>MOLECULE
*****
 29 32 0 0 0
SMALL
GASTEIGER

@<TRIPOS>ATOM
      1 C          63.2110   88.0841   12.9193 C.ar    1  UNL1        0.0473
      2 C          62.6203   87.7848   11.5734 C.ar    1  UNL1        0.0350
      3 C          62.5611   86.3701   11.0781 C.ar    1  UNL1        0.1023
      4 N          63.0926   85.2548   11.9287 N.ar    1  UNL1       -0.2425
      5 C          63.6832   85.5541   13.2746 C.ar    1  UNL1        0.0958
      6 C          63.7425   86.9686   13.7699 C.ar    1  UNL1        0.0107
      7 C          64.3331   87.2679   15.1159 C.3     1  UNL1        0.0340
      8 C          61.9705   86.0708    9.7321 C.ar    1  UNL1        0.1258
      9 N          60.6369   86.6442    9.3540 N.ar    1  UNL1       -0.2459
     10 C          60.0462   86.3450    8.0081 C.ar    1  UNL1        0.0595
     11 C          58.7127   86.9183    7.6300 C.3     1  UNL1        0.0521
     12 C          60.7891   85.4723    7.0402 C.ar    1  UNL1        0.0171
     13 C          62.1226   84.8990    7.4184 C.ar    1  UNL1        0.0325
     14 C          62.7133   85.1983    8.7643 C.ar    1  UNL1        0.1591
     15 F          64.0468   84.6249    9.1424 F       1  UNL1       -0.2025
     16 N          63.2702   89.4986   13.4146 N.pl3   1  UNL1       -0.3125
     17 H          62.9442   89.7182   14.3173 H       1  UNL1        0.1522
     18 C          65.2025   91.5008   14.5363 C.ar    1  UNL1        0.1413
     19 C          66.1686   92.5018   15.0970 C.ar    1  UNL1        0.0370
     20 C          66.7246   93.5819   14.2172 C.ar    1  UNL1        0.0047
     21 C          66.3145   93.6610   12.7765 C.ar    1  UNL1        0.0193
     22 C          65.3484   92.6599   12.2157 C.ar    1  UNL1        0.0854
     23 N          64.9383   92.7390   10.7750 N.ar    1  UNL1       -0.2437
     24 C          63.9723   91.7379   10.2142 C.ar    1  UNL1        0.1001
     25 C          63.4162   90.6578   11.0941 C.ar    1  UNL1        0.0354
     26 C          63.8263   90.5787   12.5348 C.ar    1  UNL1        0.0542
     27 C          64.7924   91.5798   13.0956 C.ar    1  UNL1        0.0650
     28 C          63.6410   90.7602   16.4762 C.3     1  UNL1        0.2525
     29 O          64.6464   90.4207   15.4162 O.3     1  UNL1       -0.4713
@<TRIPOS>BOND
     1    28    29    1
     2    29    18    1
     3    18    19   ar
     4    19    20   ar
     5    20    21   ar
     6    21    22   ar
     7    22    23   ar
     8    23    24   ar
     9    24    25   ar
    10    25    26   ar
    11    26    16    1
    12    16     1    1
    13     1     2   ar
    14     2     3   ar
    15     3     8    1
    16     8     9   ar
    17     9    10   ar
    18    10    11    1
    19    10    12   ar
    20    12    13   ar
    21    13    14   ar
    22    14    15    1
    23     3     4   ar
    24     4     5   ar
    25     5     6   ar
    26     6     7    1
    27    26    27   ar
    28    27    18   ar
    29    27    22   ar
    30     6     1   ar
    31    14     8   ar
    32    16    17    1
