@<TRIPOS>MOLECULE
*****
 30 33 0 0 0
SMALL
GASTEIGER

@<TRIPOS>ATOM
      1 C          64.5447   89.5361   14.4346 C.2     1  UNL1        0.3767
      2 N          64.2757   90.1261   13.0820 N.2     1  UNL1       -0.0307
      3 C          64.9711   91.4531   13.0085 C.2     1  UNL1        0.2334
      4 C          65.0582   92.4816   11.9201 C.2     1  UNL1        0.0681
      5 C          65.8442   93.7403   12.1389 C.2     1  UNL1        0.1060
      6 C          66.5430   93.9705   13.4461 C.2     1  UNL1        0.0012
      7 C          66.4559   92.9420   14.5344 C.3     1  UNL1        0.1051
      8 C          65.6699   91.6833   14.3156 C.2     1  UNL1        0.2179
      9 N          65.4063   90.4985   15.1970 N.2     1  UNL1       -0.0347
     10 O          62.5281   84.2540   16.4429 O.2     1  UNL1       -0.2666
     11 C          63.0323   85.5745   15.9408 C.ar    1  UNL1        0.2648
     12 C          63.0382   86.7691   16.8479 C.ar    1  UNL1        0.0614
     13 C          63.5423   88.0896   16.3459 C.ar    1  UNL1        0.0141
     14 C          64.0405   88.2156   14.9367 C.ar    1  UNL1        0.1061
     15 C          64.0346   87.0210   14.0296 C.ar    1  UNL1        0.0906
     16 N          63.5305   85.7005   14.5316 N.ar    1  UNL1       -0.2729
     17 C          63.5246   84.5059   13.6244 C.ar    1  UNL1        0.0669
     18 C          62.7709   84.5521   12.3283 C.ar    1  UNL1        0.0176
     19 C          62.7650   83.3576   11.4212 C.ar    1  UNL1        0.0015
     20 C          63.5129   82.1168   11.8100 C.ar    1  UNL1        0.0001
     21 C          64.2666   82.0705   13.1061 C.ar    1  UNL1        0.0015
     22 C          64.2724   83.2651   14.0133 C.ar    1  UNL1        0.0176
     23 S          65.9314   94.7689   11.0505 S.O2    1  UNL1        0.0171
     24 O          66.1283   95.8417   12.0801 O.2     1  UNL1       -0.1684
     25 O          65.7345   93.6960   10.0209 O.2     1  UNL1       -0.1684
     26 C          66.0186   95.7973    9.9621 C.3     1  UNL1        0.2585
     27 C          67.0134   95.6317    8.8517 C.3     1  UNL1        0.4198
     28 F          68.0081   95.4661    7.7413 F       1  UNL1       -0.1681
     29 F          65.9931   96.1175    7.8652 F       1  UNL1       -0.1681
     30 F          68.0336   95.1460    9.8381 F       1  UNL1       -0.1681
@<TRIPOS>BOND
     1    10    11    2
     2    11    12   ar
     3    12    13   ar
     4    13    14   ar
     5    14     1    1
     6     1     2    2
     7     2     3    1
     8     3     4    2
     9     4     5    1
    10     5    23    1
    11    23    24    2
    12    23    25    2
    13    23    26    1
    14    26    27    1
    15    27    28    1
    16    27    29    1
    17    27    30    1
    18     5     6    2
    19     6     7    1
    20     7     8    1
    21     8     9    2
    22    14    15   ar
    23    15    16   ar
    24    16    17    1
    25    17    18   ar
    26    18    19   ar
    27    19    20   ar
    28    20    21   ar
    29    21    22   ar
    30    16    11   ar
    31    22    17   ar
    32     9     1    1
    33     8     3    1
@<TRIPOS>MOLECULE
*****
 30 33 0 0 0
SMALL
GASTEIGER

@<TRIPOS>ATOM
      1 C          64.3484   89.1252   13.5653 C.2     1  UNL1        0.3767
      2 N          64.5088   87.9497   14.4832 N.2     1  UNL1       -0.0307
      3 C          63.7647   86.7915   13.8875 C.2     1  UNL1        0.2334
      4 C          63.5719   85.3777   14.3499 C.2     1  UNL1        0.0681
      5 C          62.7587   84.4236   13.5264 C.2     1  UNL1        0.1060
      6 C          62.1383   84.8832   12.2404 C.2     1  UNL1        0.0012
      7 C          62.3311   86.2971   11.7779 C.3     1  UNL1        0.1051
      8 C          63.1443   87.2512   12.6015 C.2     1  UNL1        0.2179
      9 N          63.5051   88.6935   12.4024 N.2     1  UNL1       -0.0347
     10 O          66.6718   94.5939   14.3993 O.2     1  UNL1       -0.2666
     11 C          66.0909   93.2267   14.1908 C.ar    1  UNL1        0.2648
     12 C          65.6183   92.4253   15.3673 C.ar    1  UNL1        0.0614
     13 C          65.0374   91.0581   15.1588 C.ar    1  UNL1        0.0141
     14 C          64.9292   90.4924   13.7738 C.ar    1  UNL1        0.1061
     15 C          65.4019   91.2939   12.5973 C.ar    1  UNL1        0.0906
     16 N          65.9827   92.6610   12.8058 N.ar    1  UNL1       -0.2729
     17 C          66.4554   93.4625   11.6292 C.ar    1  UNL1        0.0669
     18 C          67.2490   92.8014   10.5415 C.ar    1  UNL1        0.0176
     19 C          67.7217   93.6028    9.3650 C.ar    1  UNL1        0.0015
     20 C          67.4007   95.0654    9.2760 C.ar    1  UNL1        0.0001
     21 C          66.6071   95.7265   10.3637 C.ar    1  UNL1        0.0015
     22 C          66.1344   94.9250   11.5403 C.ar    1  UNL1        0.0176
     23 S          62.5658   83.0097   13.9888 S.O2    1  UNL1        0.0171
     24 O          62.7929   83.4425   15.4069 O.2     1  UNL1       -0.1684
     25 O          62.3387   82.5769   12.5707 O.2     1  UNL1       -0.1684
     26 C          62.3730   81.5958   14.4512 C.3     1  UNL1        0.2585
     27 C          62.4216   80.4698   13.4614 C.3     1  UNL1        0.4198
     28 F          62.4702   79.3437   12.4716 F       1  UNL1       -0.1681
     29 F          63.8990   80.6738   13.3018 F       1  UNL1       -0.1681
     30 F          60.9442   80.2657   13.6210 F       1  UNL1       -0.1681
@<TRIPOS>BOND
     1    10    11    2
     2    11    12   ar
     3    12    13   ar
     4    13    14   ar
     5    14     1    1
     6     1     2    2
     7     2     3    1
     8     3     4    2
     9     4     5    1
    10     5    23    1
    11    23    24    2
    12    23    25    2
    13    23    26    1
    14    26    27    1
    15    27    28    1
    16    27    29    1
    17    27    30    1
    18     5     6    2
    19     6     7    1
    20     7     8    1
    21     8     9    2
    22    14    15   ar
    23    15    16   ar
    24    16    17    1
    25    17    18   ar
    26    18    19   ar
    27    19    20   ar
    28    20    21   ar
    29    21    22   ar
    30    16    11   ar
    31    22    17   ar
    32     9     1    1
    33     8     3    1
@<TRIPOS>MOLECULE
*****
 30 33 0 0 0
SMALL
GASTEIGER

@<TRIPOS>ATOM
      1 C          62.1369   89.1398   10.8243 C.2     1  UNL1        0.3767
      2 N          62.8907   90.4362   10.7908 N.2     1  UNL1       -0.0307
      3 C          63.6930   90.5387   12.0541 C.2     1  UNL1        0.2334
      4 C          64.6251   91.5955   12.5681 C.2     1  UNL1        0.0681
      5 C          65.2993   91.4193   13.8964 C.2     1  UNL1        0.1060
      6 C          65.0414   90.1862   14.7106 C.2     1  UNL1        0.0012
      7 C          64.1093   89.1294   14.1966 C.3     1  UNL1        0.1051
      8 C          63.4351   89.3056   12.8683 C.2     1  UNL1        0.2179
      9 N          62.4734   88.4411   12.1083 N.2     1  UNL1       -0.0347
     10 O          58.4273   87.1061    6.5696 O.2     1  UNL1       -0.2666
     11 C          59.3547   87.6145    7.6333 C.ar    1  UNL1        0.2648
     12 C          59.8185   86.6967    8.7252 C.ar    1  UNL1        0.0614
     13 C          60.7459   87.2051    9.7889 C.ar    1  UNL1        0.0141
     14 C          61.2095   88.6314    9.7606 C.ar    1  UNL1        0.1061
     15 C          60.7457   89.5492    8.6687 C.ar    1  UNL1        0.0906
     16 N          59.8183   89.0408    7.6050 N.ar    1  UNL1       -0.2729
     17 C          59.3545   89.9587    6.5130 C.ar    1  UNL1        0.0669
     18 C          57.8872   90.1645    6.2790 C.ar    1  UNL1        0.0176
     19 C          57.4234   91.0824    5.1871 C.ar    1  UNL1        0.0015
     20 C          58.4269   91.7945    4.3291 C.ar    1  UNL1        0.0001
     21 C          59.8941   91.5887    4.5631 C.ar    1  UNL1        0.0015
     22 C          60.3579   90.6707    5.6551 C.ar    1  UNL1        0.0176
     23 S          66.2315   92.4761   14.4105 S.O2    1  UNL1        0.0171
     24 O          67.0347   92.3823   13.1472 O.2     1  UNL1       -0.1684
     25 O          65.4283   92.5699   15.6738 O.2     1  UNL1       -0.1684
     26 C          67.1635   93.5329   14.9246 C.3     1  UNL1        0.2585
     27 C          68.3446   93.1470   15.7651 C.3     1  UNL1        0.4198
     28 F          69.5255   92.7611   16.6055 F       1  UNL1       -0.1681
     29 F          68.0746   91.6994   15.4797 F       1  UNL1       -0.1681
     30 F          68.6145   94.5946   16.0504 F       1  UNL1       -0.1681
@<TRIPOS>BOND
     1    10    11    2
     2    11    12   ar
     3    12    13   ar
     4    13    14   ar
     5    14     1    1
     6     1     2    2
     7     2     3    1
     8     3     4    2
     9     4     5    1
    10     5    23    1
    11    23    24    2
    12    23    25    2
    13    23    26    1
    14    26    27    1
    15    27    28    1
    16    27    29    1
    17    27    30    1
    18     5     6    2
    19     6     7    1
    20     7     8    1
    21     8     9    2
    22    14    15   ar
    23    15    16   ar
    24    16    17    1
    25    17    18   ar
    26    18    19   ar
    27    19    20   ar
    28    20    21   ar
    29    21    22   ar
    30    16    11   ar
    31    22    17   ar
    32     9     1    1
    33     8     3    1
@<TRIPOS>MOLECULE
*****
 30 33 0 0 0
SMALL
GASTEIGER

@<TRIPOS>ATOM
      1 C          63.8672   86.9711   14.6782 C.2     1  UNL1        0.3767
      2 N          63.4615   86.5380   13.3006 N.2     1  UNL1       -0.0307
      3 C          63.5590   85.0425   13.2372 C.2     1  UNL1        0.2334
      4 C          63.2836   84.0646   12.1337 C.2     1  UNL1        0.0681
      5 C          63.4744   82.5955   12.3686 C.2     1  UNL1        0.1060
      6 C          63.9404   82.1043   13.7070 C.2     1  UNL1        0.0012
      7 C          64.2158   83.0822   14.8106 C.3     1  UNL1        0.1051
      8 C          64.0251   84.5513   14.5756 C.2     1  UNL1        0.2179
      9 N          64.2155   85.7432   15.4662 N.2     1  UNL1       -0.0347
     10 O          64.0627   92.6224   16.6842 O.2     1  UNL1       -0.2666
     11 C          64.0138   91.2096   16.1827 C.ar    1  UNL1        0.2648
     12 C          63.3911   90.1359   17.0249 C.ar    1  UNL1        0.0614
     13 C          63.3423   88.7231   16.5234 C.ar    1  UNL1        0.0141
     14 C          63.9161   88.3839   15.1797 C.ar    1  UNL1        0.1061
     15 C          64.5388   89.4576   14.3375 C.ar    1  UNL1        0.0906
     16 N          64.5877   90.8704   14.8390 N.ar    1  UNL1       -0.2729
     17 C          65.2104   91.9441   13.9967 C.ar    1  UNL1        0.0669
     18 C          64.8799   92.0382   12.5365 C.ar    1  UNL1        0.0176
     19 C          65.5026   93.1118   11.6942 C.ar    1  UNL1        0.0015
     20 C          66.4558   94.0915   12.3121 C.ar    1  UNL1        0.0001
     21 C          66.7863   93.9975   13.7722 C.ar    1  UNL1        0.0015
     22 C          66.1636   92.9238   14.6145 C.ar    1  UNL1        0.0176
     23 S          63.1990   81.6175   11.2650 S.O2    1  UNL1        0.0171
     24 O          64.5695   81.8617   10.7066 O.2     1  UNL1       -0.1684
     25 O          61.8284   81.3733   11.8235 O.2     1  UNL1       -0.1684
     26 C          62.9236   80.6395   10.1615 C.3     1  UNL1        0.2585
     27 C          62.9439   79.1662   10.4427 C.3     1  UNL1        0.4198
     28 F          62.9641   77.6930   10.7238 F       1  UNL1       -0.1681
     29 F          63.0889   78.8883    8.9758 F       1  UNL1       -0.1681
     30 F          62.7988   79.4442   11.9095 F       1  UNL1       -0.1681
@<TRIPOS>BOND
     1    10    11    2
     2    11    12   ar
     3    12    13   ar
     4    13    14   ar
     5    14     1    1
     6     1     2    2
     7     2     3    1
     8     3     4    2
     9     4     5    1
    10     5    23    1
    11    23    24    2
    12    23    25    2
    13    23    26    1
    14    26    27    1
    15    27    28    1
    16    27    29    1
    17    27    30    1
    18     5     6    2
    19     6     7    1
    20     7     8    1
    21     8     9    2
    22    14    15   ar
    23    15    16   ar
    24    16    17    1
    25    17    18   ar
    26    18    19   ar
    27    19    20   ar
    28    20    21   ar
    29    21    22   ar
    30    16    11   ar
    31    22    17   ar
    32     9     1    1
    33     8     3    1
@<TRIPOS>MOLECULE
*****
 30 33 0 0 0
SMALL
GASTEIGER

@<TRIPOS>ATOM
      1 C          63.8766   88.5784   13.8415 C.2     1  UNL1        0.3767
      2 N          64.7953   89.6992   14.2287 N.2     1  UNL1       -0.0307
      3 C          64.7653   90.7228   13.1326 C.2     1  UNL1        0.2334
      4 C          65.4703   92.0363   12.9663 C.2     1  UNL1        0.0681
      5 C          65.2381   92.8615   11.7355 C.2     1  UNL1        0.1060
      6 C          64.3009   92.3733   10.6709 C.2     1  UNL1        0.0012
      7 C          63.5960   91.0598   10.8371 C.3     1  UNL1        0.1051
      8 C          63.8281   90.2346   12.0680 C.2     1  UNL1        0.2179
      9 N          63.2789   88.9093   12.5061 N.2     1  UNL1       -0.0347
     10 O          62.7847   83.6390   17.0680 O.2     1  UNL1       -0.2666
     11 C          63.0577   84.8738   16.2614 C.ar    1  UNL1        0.2648
     12 C          63.1266   86.2111   16.9372 C.ar    1  UNL1        0.0614
     13 C          63.3996   87.4460   16.1306 C.ar    1  UNL1        0.0141
     14 C          63.6036   87.3435   14.6481 C.ar    1  UNL1        0.1061
     15 C          63.5347   86.0063   13.9723 C.ar    1  UNL1        0.0906
     16 N          63.2617   84.7714   14.7789 N.ar    1  UNL1       -0.2729
     17 C          63.1928   83.4341   14.1029 C.ar    1  UNL1        0.0669
     18 C          62.0474   82.5082   14.3871 C.ar    1  UNL1        0.0176
     19 C          61.9784   81.1709   13.7112 C.ar    1  UNL1        0.0015
     20 C          63.0550   80.7594   12.7511 C.ar    1  UNL1        0.0001
     21 C          64.2004   81.6853   12.4669 C.ar    1  UNL1        0.0015
     22 C          64.2693   83.0226   13.1428 C.ar    1  UNL1        0.0176
     23 S          65.9431   94.1751   11.5692 S.O2    1  UNL1        0.0171
     24 O          65.8310   94.0467   10.0790 O.2     1  UNL1       -0.1684
     25 O          66.0552   94.3035   13.0595 O.2     1  UNL1       -0.1684
     26 C          66.6481   95.4886   11.4030 C.3     1  UNL1        0.2585
     27 C          66.6576   96.1710   10.0672 C.3     1  UNL1        0.4198
     28 F          66.6672   96.8532    8.7314 F       1  UNL1       -0.1681
     29 F          65.2940   96.7313   10.3436 F       1  UNL1       -0.1681
     30 F          68.0213   95.6106    9.7907 F       1  UNL1       -0.1681
@<TRIPOS>BOND
     1    10    11    2
     2    11    12   ar
     3    12    13   ar
     4    13    14   ar
     5    14     1    1
     6     1     2    2
     7     2     3    1
     8     3     4    2
     9     4     5    1
    10     5    23    1
    11    23    24    2
    12    23    25    2
    13    23    26    1
    14    26    27    1
    15    27    28    1
    16    27    29    1
    17    27    30    1
    18     5     6    2
    19     6     7    1
    20     7     8    1
    21     8     9    2
    22    14    15   ar
    23    15    16   ar
    24    16    17    1
    25    17    18   ar
    26    18    19   ar
    27    19    20   ar
    28    20    21   ar
    29    21    22   ar
    30    16    11   ar
    31    22    17   ar
    32     9     1    1
    33     8     3    1
@<TRIPOS>MOLECULE
*****
 30 33 0 0 0
SMALL
GASTEIGER

@<TRIPOS>ATOM
      1 C          62.4689   90.0307   11.8205 C.2     1  UNL1        0.3767
      2 N          63.6644   90.9126   11.6133 N.2     1  UNL1       -0.0307
      3 C          64.2548   91.2169   12.9582 C.2     1  UNL1        0.2334
      4 C          65.4414   92.0361   13.3714 C.2     1  UNL1        0.0681
      5 C          65.7974   92.1614   14.8232 C.2     1  UNL1        0.1060
      6 C          64.9667   91.4675   15.8617 C.2     1  UNL1        0.0012
      7 C          63.7801   90.6483   15.4485 C.3     1  UNL1        0.1051
      8 C          63.4241   90.5230   13.9967 C.2     1  UNL1        0.2179
      9 N          62.3204   89.7899   13.2936 N.2     1  UNL1       -0.0347
     10 O          58.9064   87.8494    7.5135 O.2     1  UNL1       -0.2666
     11 C          59.7970   88.3947    8.5903 C.ar    1  UNL1        0.2648
     12 C          59.3990   89.6332    9.3370 C.ar    1  UNL1        0.0614
     13 C          60.2896   90.1785   10.4138 C.ar    1  UNL1        0.0141
     14 C          61.5783   89.4854   10.7438 C.ar    1  UNL1        0.1061
     15 C          61.9763   88.2469    9.9970 C.ar    1  UNL1        0.0906
     16 N          61.0857   87.7016    8.9202 N.ar    1  UNL1       -0.2729
     17 C          61.4837   86.4631    8.1734 C.ar    1  UNL1        0.0669
     18 C          62.8133   85.8216    8.4395 C.ar    1  UNL1        0.0176
     19 C          63.2114   84.5831    7.6928 C.ar    1  UNL1        0.0015
     20 C          62.2799   83.9860    6.6799 C.ar    1  UNL1        0.0001
     21 C          60.9503   84.6275    6.4138 C.ar    1  UNL1        0.0015
     22 C          60.5523   85.8660    7.1606 C.ar    1  UNL1        0.0176
     23 S          66.9840   92.9806   15.2364 S.O2    1  UNL1        0.0171
     24 O          66.4387   93.0671   16.6311 O.2     1  UNL1       -0.1684
     25 O          67.5294   92.8941   13.8418 O.2     1  UNL1       -0.1684
     26 C          68.1707   93.7998   15.6497 C.3     1  UNL1        0.2585
     27 C          69.3228   93.1482   16.3555 C.3     1  UNL1        0.4198
     28 F          70.4749   92.4967   17.0613 F       1  UNL1       -0.1681
     29 F          68.6170   91.8264   16.2874 F       1  UNL1       -0.1681
     30 F          70.0285   94.4700   16.4236 F       1  UNL1       -0.1681
@<TRIPOS>BOND
     1    10    11    2
     2    11    12   ar
     3    12    13   ar
     4    13    14   ar
     5    14     1    1
     6     1     2    2
     7     2     3    1
     8     3     4    2
     9     4     5    1
    10     5    23    1
    11    23    24    2
    12    23    25    2
    13    23    26    1
    14    26    27    1
    15    27    28    1
    16    27    29    1
    17    27    30    1
    18     5     6    2
    19     6     7    1
    20     7     8    1
    21     8     9    2
    22    14    15   ar
    23    15    16   ar
    24    16    17    1
    25    17    18   ar
    26    18    19   ar
    27    19    20   ar
    28    20    21   ar
    29    21    22   ar
    30    16    11   ar
    31    22    17   ar
    32     9     1    1
    33     8     3    1
@<TRIPOS>MOLECULE
*****
 30 33 0 0 0
SMALL
GASTEIGER

@<TRIPOS>ATOM
      1 C          63.6006   86.6661   13.9880 C.2     1  UNL1        0.3767
      2 N          64.5500   87.4327   14.8603 N.2     1  UNL1       -0.0307
      3 C          64.6760   88.8192   14.3018 C.2     1  UNL1        0.2334
      4 C          65.4716   90.0111   14.7446 C.2     1  UNL1        0.0681
      5 C          65.3958   91.2933   13.9699 C.2     1  UNL1        0.1060
      6 C          64.5243   91.3835   12.7523 C.2     1  UNL1        0.0012
      7 C          63.7286   90.1916   12.3096 C.3     1  UNL1        0.1051
      8 C          63.8044   88.9094   13.0843 C.2     1  UNL1        0.2179
      9 N          63.1399   87.5787   12.8904 N.2     1  UNL1       -0.0347
     10 O          61.9381   80.9522   14.7546 O.2     1  UNL1       -0.2666
     11 C          62.3537   82.3807   14.5630 C.ar    1  UNL1        0.2648
     12 C          62.2430   83.3530   15.6997 C.ar    1  UNL1        0.0614
     13 C          62.6586   84.7814   15.5081 C.ar    1  UNL1        0.0141
     14 C          63.1850   85.2376   14.1796 C.ar    1  UNL1        0.1061
     15 C          63.2957   84.2653   13.0429 C.ar    1  UNL1        0.0906
     16 N          62.8801   82.8369   13.2345 N.ar    1  UNL1       -0.2729
     17 C          62.9908   81.8645   12.0976 C.ar    1  UNL1        0.0669
     18 C          63.4954   82.3260   10.7626 C.ar    1  UNL1        0.0176
     19 C          63.6062   81.3538    9.6257 C.ar    1  UNL1        0.0015
     20 C          63.2123   79.9200    9.8239 C.ar    1  UNL1        0.0001
     21 C          62.7077   79.4585   11.1590 C.ar    1  UNL1        0.0015
     22 C          62.5969   80.4308   12.2959 C.ar    1  UNL1        0.0176
     23 S          66.1916   92.4853   14.4126 S.O2    1  UNL1        0.0171
     24 O          67.0807   92.3372   13.2137 O.2     1  UNL1       -0.1684
     25 O          65.3024   92.6335   15.6115 O.2     1  UNL1       -0.1684
     26 C          66.9872   93.6773   14.8554 C.3     1  UNL1        0.2585
     27 C          68.2326   93.4874   15.6697 C.3     1  UNL1        0.4198
     28 F          69.4779   93.2974   16.4840 F       1  UNL1       -0.1681
     29 F          68.5107   94.9590   15.5878 F       1  UNL1       -0.1681
     30 F          67.9545   92.0157   15.7516 F       1  UNL1       -0.1681
@<TRIPOS>BOND
     1    10    11    2
     2    11    12   ar
     3    12    13   ar
     4    13    14   ar
     5    14     1    1
     6     1     2    2
     7     2     3    1
     8     3     4    2
     9     4     5    1
    10     5    23    1
    11    23    24    2
    12    23    25    2
    13    23    26    1
    14    26    27    1
    15    27    28    1
    16    27    29    1
    17    27    30    1
    18     5     6    2
    19     6     7    1
    20     7     8    1
    21     8     9    2
    22    14    15   ar
    23    15    16   ar
    24    16    17    1
    25    17    18   ar
    26    18    19   ar
    27    19    20   ar
    28    20    21   ar
    29    21    22   ar
    30    16    11   ar
    31    22    17   ar
    32     9     1    1
    33     8     3    1
@<TRIPOS>MOLECULE
*****
 30 33 0 0 0
SMALL
GASTEIGER

@<TRIPOS>ATOM
      1 C          62.7882   90.3633   10.8763 C.2     1  UNL1        0.3767
      2 N          63.4169   90.3072   12.2371 N.2     1  UNL1       -0.0307
      3 C          64.4384   91.4024   12.3213 C.2     1  UNL1        0.2334
      4 C          65.3665   91.8269   13.4205 C.2     1  UNL1        0.0681
      5 C          66.2972   92.9844   13.2111 C.2     1  UNL1        0.1060
      6 C          66.2998   93.7175   11.9024 C.2     1  UNL1        0.0012
      7 C          65.3717   93.2929   10.8032 C.3     1  UNL1        0.1051
      8 C          64.4410   92.1354   11.0126 C.2     1  UNL1        0.2179
      9 N          63.4212   91.4932   10.1196 N.2     1  UNL1       -0.0347
     10 O          58.4955   86.7096    8.8213 O.2     1  UNL1       -0.2666
     11 C          59.5687   87.6230    9.3351 C.ar    1  UNL1        0.2648
     12 C          59.2117   88.7659   10.2386 C.ar    1  UNL1        0.0614
     13 C          60.2849   89.6793   10.7524 C.ar    1  UNL1        0.0141
     14 C          61.7150   89.4499   10.3626 C.ar    1  UNL1        0.1061
     15 C          62.0720   88.3070    9.4590 C.ar    1  UNL1        0.0906
     16 N          60.9988   87.3936    8.9453 N.ar    1  UNL1       -0.2729
     17 C          61.3558   86.2508    8.0416 C.ar    1  UNL1        0.0669
     18 C          62.7019   85.5983    8.1536 C.ar    1  UNL1        0.0176
     19 C          63.0589   84.4555    7.2501 C.ar    1  UNL1        0.0015
     20 C          62.0699   83.9651    6.2345 C.ar    1  UNL1        0.0001
     21 C          60.7239   84.6175    6.1225 C.ar    1  UNL1        0.0015
     22 C          60.3669   85.7604    7.0261 C.ar    1  UNL1        0.0176
     23 S          67.2253   93.4090   14.3104 S.O2    1  UNL1        0.0171
     24 O          68.1723   92.3075   13.9364 O.2     1  UNL1       -0.1684
     25 O          66.2784   94.5105   14.6844 O.2     1  UNL1       -0.1684
     26 C          68.1534   93.8336   15.4096 C.3     1  UNL1        0.2585
     27 C          68.7537   92.8062   16.3231 C.3     1  UNL1        0.4198
     28 F          69.3539   91.7790   17.2365 F       1  UNL1       -0.1681
     29 F          70.1202   93.3603   16.0483 F       1  UNL1       -0.1681
     30 F          67.3871   92.2522   16.5979 F       1  UNL1       -0.1681
@<TRIPOS>BOND
     1    10    11    2
     2    11    12   ar
     3    12    13   ar
     4    13    14   ar
     5    14     1    1
     6     1     2    2
     7     2     3    1
     8     3     4    2
     9     4     5    1
    10     5    23    1
    11    23    24    2
    12    23    25    2
    13    23    26    1
    14    26    27    1
    15    27    28    1
    16    27    29    1
    17    27    30    1
    18     5     6    2
    19     6     7    1
    20     7     8    1
    21     8     9    2
    22    14    15   ar
    23    15    16   ar
    24    16    17    1
    25    17    18   ar
    26    18    19   ar
    27    19    20   ar
    28    20    21   ar
    29    21    22   ar
    30    16    11   ar
    31    22    17   ar
    32     9     1    1
    33     8     3    1
@<TRIPOS>MOLECULE
*****
 30 33 0 0 0
SMALL
GASTEIGER

@<TRIPOS>ATOM
      1 C          63.4957   86.9127   13.1005 C.2     1  UNL1        0.3767
      2 N          63.2851   85.9004   12.0139 N.2     1  UNL1       -0.0307
      3 C          63.1636   84.5500   12.6556 C.2     1  UNL1        0.2334
      4 C          62.9471   83.1815   12.0810 C.2     1  UNL1        0.0681
      5 C          62.8661   81.9908   12.9896 C.2     1  UNL1        0.1060
      6 C          63.0017   82.1686   14.4729 C.2     1  UNL1        0.0012
      7 C          63.2182   83.5371   15.0475 C.3     1  UNL1        0.1051
      8 C          63.2992   84.7278   14.1389 C.2     1  UNL1        0.2179
      9 N          63.5044   86.1880   14.4138 N.2     1  UNL1       -0.0347
     10 O          64.1827   92.8232   12.3292 O.2     1  UNL1       -0.2666
     11 C          64.0110   91.3456   12.5220 C.ar    1  UNL1        0.2648
     12 C          63.0330   90.5873   11.6745 C.ar    1  UNL1        0.0614
     13 C          62.8612   89.1097   11.8673 C.ar    1  UNL1        0.0141
     14 C          63.6675   88.3903   12.9077 C.ar    1  UNL1        0.1061
     15 C          64.6455   89.1486   13.7552 C.ar    1  UNL1        0.0906
     16 N          64.8173   90.6262   13.5624 N.ar    1  UNL1       -0.2729
     17 C          65.7954   91.3845   14.4101 C.ar    1  UNL1        0.0669
     18 C          67.2067   91.5744   13.9389 C.ar    1  UNL1        0.0176
     19 C          68.1848   92.3326   14.7864 C.ar    1  UNL1        0.0015
     20 C          67.7516   92.9010   16.1052 C.ar    1  UNL1        0.0001
     21 C          66.3402   92.7112   16.5764 C.ar    1  UNL1        0.0015
     22 C          65.3621   91.9529   15.7288 C.ar    1  UNL1        0.0176
     23 S          62.6496   80.6222   12.4150 S.O2    1  UNL1        0.0171
     24 O          63.6745   80.9043   11.3567 O.2     1  UNL1       -0.1684
     25 O          61.6247   80.3401   13.4733 O.2     1  UNL1       -0.1684
     26 C          62.4331   79.2536   11.8404 C.3     1  UNL1        0.2585
     27 C          62.8229   78.9659   10.4208 C.3     1  UNL1        0.4198
     28 F          63.2128   78.6782    9.0013 F       1  UNL1       -0.1681
     29 F          63.1755   77.5589   10.8028 F       1  UNL1       -0.1681
     30 F          62.4704   80.3729   10.0388 F       1  UNL1       -0.1681
@<TRIPOS>BOND
     1    10    11    2
     2    11    12   ar
     3    12    13   ar
     4    13    14   ar
     5    14     1    1
     6     1     2    2
     7     2     3    1
     8     3     4    2
     9     4     5    1
    10     5    23    1
    11    23    24    2
    12    23    25    2
    13    23    26    1
    14    26    27    1
    15    27    28    1
    16    27    29    1
    17    27    30    1
    18     5     6    2
    19     6     7    1
    20     7     8    1
    21     8     9    2
    22    14    15   ar
    23    15    16   ar
    24    16    17    1
    25    17    18   ar
    26    18    19   ar
    27    19    20   ar
    28    20    21   ar
    29    21    22   ar
    30    16    11   ar
    31    22    17   ar
    32     9     1    1
    33     8     3    1
