@<TRIPOS>MOLECULE
*****
 30 35 0 0 0
SMALL
GASTEIGER

@<TRIPOS>ATOM
      1 C          64.4908   89.2924   15.0385 C.2     1  UNL1       -0.0378
      2 C          64.7346   88.0772   14.1935 C.2     1  UNL1       -0.0080
      3 C          64.1599   86.7529   14.6007 C.2     1  UNL1        0.0022
      4 C          63.3413   86.6438   15.8529 C.2     1  UNL1        0.0350
      5 C          62.6516   85.4812   16.5030 C.2     1  UNL1        0.1040
      6 N          61.9815   85.9777   17.7498 N.2     1  UNL1       -0.1483
      7 N          62.2571   87.4473   17.8701 N.2     1  UNL1       -0.1520
      8 C          63.0974   87.8589   16.6979 C.2     1  UNL1        0.0860
      9 C          63.6722   89.1832   16.2906 C.3     1  UNL1        0.0697
     10 O          66.6181   93.9802   13.7837 O.2     1  UNL1       -0.2744
     11 C          65.7052   93.0223   13.0772 C.2     1  UNL1        0.2293
     12 N          65.1294   93.2031   11.7040 N.am    1  UNL1       -0.2839
     13 C          64.2762   92.0080   11.3980 C.ar    1  UNL1        0.0467
     14 C          63.4614   91.6382   10.1941 C.ar    1  UNL1        0.0144
     15 C          62.6952   90.3489   10.1743 C.ar    1  UNL1        0.0013
     16 C          62.7436   89.4294   11.3584 C.ar    1  UNL1       -0.0002
     17 C          63.5584   89.7991   12.5623 C.ar    1  UNL1       -0.0026
     18 C          64.3247   91.0884   12.5821 C.ar    1  UNL1       -0.0008
     19 C          65.2079   91.7153   13.6199 C.3     1  UNL1        0.0927
     20 C          65.9187   91.8119   14.9372 C.3     1  UNL1        0.0179
     21 C          65.0656   90.6168   14.6312 C.3     1  UNL1        0.0315
     22 H          65.2843   93.9714   11.1081 H       1  UNL1        0.1549
     23 C          62.6350   84.0697   15.9954 C.2     1  UNL1        0.0210
     24 C          62.4068   83.7995   14.5377 C.2     1  UNL1        0.0031
     25 C          62.3902   82.3881   14.0302 C.ar    1  UNL1        0.0192
     26 C          61.2460   81.4810   14.3736 C.ar    1  UNL1        0.0031
     27 C          61.2293   80.0696   13.8661 C.ar    1  UNL1        0.0207
     28 C          62.3568   79.5652   13.0151 C.ar    1  UNL1        0.0989
     29 N          63.5011   80.4723   12.6715 N.ar    1  UNL1       -0.2423
     30 C          63.5178   81.8837   13.1791 C.ar    1  UNL1        0.0988
@<TRIPOS>BOND
     1    10    11    2
     2    11    12   am
     3    12    13    1
     4    13    14   ar
     5    14    15   ar
     6    15    16   ar
     7    16    17   ar
     8    17    18   ar
     9    18    19    1
    10    19    20    1
    11    20    21    1
    12    21     1    1
    13     1     2    2
    14     2     3    1
    15     3     4    2
    16     4     5    1
    17     5    23    1
    18    23    24    2
    19    24    25    1
    20    25    26   ar
    21    26    27   ar
    22    27    28   ar
    23    28    29   ar
    24    29    30   ar
    25     5     6    2
    26     6     7    1
    27     7     8    2
    28     8     9    1
    29    19    11    1
    30     9     1    1
    31    18    13   ar
    32    21    19    1
    33     8     4    1
    34    30    25   ar
    35    12    22    1
@<TRIPOS>MOLECULE
*****
 30 35 0 0 0
SMALL
GASTEIGER

@<TRIPOS>ATOM
      1 C          64.4851   89.8971   13.8229 C.2     1  UNL1       -0.0378
      2 C          64.6663   88.4809   14.2828 C.2     1  UNL1       -0.0080
      3 C          63.9292   87.3693   13.5966 C.2     1  UNL1        0.0022
      4 C          63.0107   87.6740   12.4504 C.2     1  UNL1        0.0350
      5 C          62.1577   86.7933   11.5864 C.2     1  UNL1        0.1040
      6 N          61.4492   87.6652   10.5924 N.2     1  UNL1       -0.1483
      7 N          61.8645   89.0848   10.8422 N.2     1  UNL1       -0.1520
      8 C          62.8295   89.0902   11.9904 C.2     1  UNL1        0.0860
      9 C          63.5668   90.2018   12.6768 C.3     1  UNL1        0.0697
     10 O          67.0718   93.7190   16.4262 O.2     1  UNL1       -0.2744
     11 C          66.6615   93.5189   14.9974 C.2     1  UNL1        0.2293
     12 N          66.9241   94.4656   13.8638 N.am    1  UNL1       -0.2839
     13 C          66.3415   93.8688   12.6171 C.ar    1  UNL1        0.0467
     14 C          66.2976   94.3532   11.1982 C.ar    1  UNL1        0.0144
     15 C          65.6310   93.5222   10.1423 C.ar    1  UNL1        0.0013
     16 C          65.0083   92.2067   10.5053 C.ar    1  UNL1       -0.0002
     17 C          65.0523   91.7222   11.9241 C.ar    1  UNL1       -0.0026
     18 C          65.7189   92.5532   12.9800 C.ar    1  UNL1       -0.0008
     19 C          65.9167   92.3371   14.4512 C.3     1  UNL1        0.0927
     20 C          65.8049   91.6055   15.7559 C.3     1  UNL1        0.0179
     21 C          65.2224   91.0087   14.5092 C.3     1  UNL1        0.0315
     22 H          67.3960   95.3273   13.9270 H       1  UNL1        0.1549
     23 C          62.0346   85.3024   11.6968 C.2     1  UNL1        0.0210
     24 C          62.7735   84.5668   12.7752 C.2     1  UNL1        0.0031
     25 C          62.6504   83.0759   12.8857 C.ar    1  UNL1        0.0192
     26 C          62.8913   82.2123   11.6831 C.ar    1  UNL1        0.0031
     27 C          62.7682   80.7214   11.7936 C.ar    1  UNL1        0.0207
     28 C          62.4043   80.0941   13.1066 C.ar    1  UNL1        0.0989
     29 N          62.1635   80.9578   14.3093 N.ar    1  UNL1       -0.2423
     30 C          62.2865   82.4486   14.1988 C.ar    1  UNL1        0.0988
@<TRIPOS>BOND
     1    10    11    2
     2    11    12   am
     3    12    13    1
     4    13    14   ar
     5    14    15   ar
     6    15    16   ar
     7    16    17   ar
     8    17    18   ar
     9    18    19    1
    10    19    20    1
    11    20    21    1
    12    21     1    1
    13     1     2    2
    14     2     3    1
    15     3     4    2
    16     4     5    1
    17     5    23    1
    18    23    24    2
    19    24    25    1
    20    25    26   ar
    21    26    27   ar
    22    27    28   ar
    23    28    29   ar
    24    29    30   ar
    25     5     6    2
    26     6     7    1
    27     7     8    2
    28     8     9    1
    29    19    11    1
    30     9     1    1
    31    18    13   ar
    32    21    19    1
    33     8     4    1
    34    30    25   ar
    35    12    22    1
@<TRIPOS>MOLECULE
*****
 30 35 0 0 0
SMALL
GASTEIGER

@<TRIPOS>ATOM
      1 C          62.3949   86.1089   12.6649 C.2     1  UNL1       -0.0378
      2 C          63.3846   87.1497   13.0976 C.2     1  UNL1       -0.0080
      3 C          63.4531   88.4644   12.3787 C.2     1  UNL1        0.0022
      4 C          62.5318   88.7383   11.2270 C.2     1  UNL1        0.0350
      5 C          62.3694   89.9322   10.3337 C.2     1  UNL1        0.1040
      6 N          61.2793   89.6292    9.3487 N.2     1  UNL1       -0.1483
      7 N          60.7681   88.2481    9.6335 N.2     1  UNL1       -0.1520
      8 C          61.5421   87.6975   10.7943 C.2     1  UNL1        0.0860
      9 C          61.4738   86.3827   11.5133 C.3     1  UNL1        0.0697
     10 O          62.0804   81.5648   15.3718 O.2     1  UNL1       -0.2744
     11 C          62.5184   81.9282   13.9840 C.2     1  UNL1        0.2293
     12 N          63.0204   80.9753   12.9400 N.am    1  UNL1       -0.2839
     13 C          63.3436   81.7664   11.7072 C.ar    1  UNL1        0.0467
     14 C          63.8741   81.3601   10.3643 C.ar    1  UNL1        0.0144
     15 C          64.1022   82.3958    9.3035 C.ar    1  UNL1        0.0013
     16 C          63.7999   83.8376    9.5856 C.ar    1  UNL1       -0.0002
     17 C          63.2694   84.2439   10.9285 C.ar    1  UNL1       -0.0026
     18 C          63.0412   83.2083   11.9893 C.ar    1  UNL1       -0.0008
     19 C          62.5312   83.3082   13.3964 C.3     1  UNL1        0.0927
     20 C          62.0034   84.0030   14.6165 C.3     1  UNL1        0.0179
     21 C          62.3265   84.7941   13.3839 C.3     1  UNL1        0.0315
     22 H          63.1203   80.0015   13.0454 H       1  UNL1        0.1549
     23 C          63.1584   91.2055   10.4115 C.2     1  UNL1        0.0210
     24 C          64.2379   91.3571   11.4419 C.2     1  UNL1        0.0031
     25 C          65.0270   92.6304   11.5197 C.ar    1  UNL1        0.0192
     26 C          65.1112   93.5347   10.3259 C.ar    1  UNL1        0.0031
     27 C          65.9003   94.8081   10.4037 C.ar    1  UNL1        0.0207
     28 C          66.6051   95.1771   11.6753 C.ar    1  UNL1        0.0989
     29 N          66.5209   94.2728   12.8692 N.ar    1  UNL1       -0.2423
     30 C          65.7318   92.9994   12.7914 C.ar    1  UNL1        0.0988
@<TRIPOS>BOND
     1    10    11    2
     2    11    12   am
     3    12    13    1
     4    13    14   ar
     5    14    15   ar
     6    15    16   ar
     7    16    17   ar
     8    17    18   ar
     9    18    19    1
    10    19    20    1
    11    20    21    1
    12    21     1    1
    13     1     2    2
    14     2     3    1
    15     3     4    2
    16     4     5    1
    17     5    23    1
    18    23    24    2
    19    24    25    1
    20    25    26   ar
    21    26    27   ar
    22    27    28   ar
    23    28    29   ar
    24    29    30   ar
    25     5     6    2
    26     6     7    1
    27     7     8    2
    28     8     9    1
    29    19    11    1
    30     9     1    1
    31    18    13   ar
    32    21    19    1
    33     8     4    1
    34    30    25   ar
    35    12    22    1
@<TRIPOS>MOLECULE
*****
 30 35 0 0 0
SMALL
GASTEIGER

@<TRIPOS>ATOM
      1 C          61.8899   89.8248   11.3935 C.2     1  UNL1       -0.0378
      2 C          63.1136   90.6764   11.2274 C.2     1  UNL1       -0.0080
      3 C          63.9047   91.0955   12.4309 C.2     1  UNL1        0.0022
      4 C          63.4720   90.6630   13.8006 C.2     1  UNL1        0.0350
      5 C          64.0470   90.9189   15.1622 C.2     1  UNL1        0.1040
      6 N          63.1786   90.2255   16.1698 N.2     1  UNL1       -0.1483
      7 N          62.0671   89.5411   15.4308 N.2     1  UNL1       -0.1520
      8 C          62.2484   89.8115   13.9667 C.2     1  UNL1        0.0860
      9 C          61.4573   89.3924   12.7630 C.3     1  UNL1        0.0697
     10 O          59.0331   88.5415    7.1195 O.2     1  UNL1       -0.2744
     11 C          59.9097   87.7717    8.0622 C.2     1  UNL1        0.2293
     12 N          60.2025   86.3021    7.9929 N.am    1  UNL1       -0.2839
     13 C          61.1212   85.9584    9.1276 C.ar    1  UNL1        0.0467
     14 C          61.7429   84.6631    9.5587 C.ar    1  UNL1        0.0144
     15 C          62.6396   84.6250   10.7605 C.ar    1  UNL1        0.0013
     16 C          62.9147   85.8820   11.5312 C.ar    1  UNL1       -0.0002
     17 C          62.2930   87.1773   11.1002 C.ar    1  UNL1       -0.0026
     18 C          61.3963   87.2155    9.8984 C.ar    1  UNL1       -0.0008
     19 C          60.6476   88.3361    9.2399 C.3     1  UNL1        0.0927
     20 C          60.1802   89.7494    9.0551 C.3     1  UNL1        0.0179
     21 C          61.0989   89.4057   10.1898 C.3     1  UNL1        0.0315
     22 H          59.8530   85.6736    7.3205 H       1  UNL1        0.1549
     23 C          65.2747   91.7264   15.4633 C.2     1  UNL1        0.0210
     24 C          66.5252   91.5173   14.6618 C.2     1  UNL1        0.0031
     25 C          67.7529   92.3247   14.9629 C.ar    1  UNL1        0.0192
     26 C          67.7097   93.3903   16.0178 C.ar    1  UNL1        0.0031
     27 C          68.9374   94.1978   16.3189 C.ar    1  UNL1        0.0207
     28 C          70.2084   93.9397   15.5653 C.ar    1  UNL1        0.0989
     29 N          70.2517   92.8741   14.5104 N.ar    1  UNL1       -0.2423
     30 C          69.0239   92.0666   14.2092 C.ar    1  UNL1        0.0988
@<TRIPOS>BOND
     1    10    11    2
     2    11    12   am
     3    12    13    1
     4    13    14   ar
     5    14    15   ar
     6    15    16   ar
     7    16    17   ar
     8    17    18   ar
     9    18    19    1
    10    19    20    1
    11    20    21    1
    12    21     1    1
    13     1     2    2
    14     2     3    1
    15     3     4    2
    16     4     5    1
    17     5    23    1
    18    23    24    2
    19    24    25    1
    20    25    26   ar
    21    26    27   ar
    22    27    28   ar
    23    28    29   ar
    24    29    30   ar
    25     5     6    2
    26     6     7    1
    27     7     8    2
    28     8     9    1
    29    19    11    1
    30     9     1    1
    31    18    13   ar
    32    21    19    1
    33     8     4    1
    34    30    25   ar
    35    12    22    1
@<TRIPOS>MOLECULE
*****
 30 35 0 0 0
SMALL
GASTEIGER

@<TRIPOS>ATOM
      1 C          62.9454   85.3726   13.6746 C.2     1  UNL1       -0.0378
      2 C          64.0068   86.0780   14.4660 C.2     1  UNL1       -0.0080
      3 C          64.3306   87.5132   14.1741 C.2     1  UNL1        0.0022
      4 C          63.5930   88.2431   13.0909 C.2     1  UNL1        0.0350
      5 C          63.6938   89.6499   12.5804 C.2     1  UNL1        0.1040
      6 N          62.6947   89.8141   11.4735 N.2     1  UNL1       -0.1483
      7 N          61.9766   88.5086   11.3000 N.2     1  UNL1       -0.1520
      8 C          62.5317   87.5378   12.2996 C.2     1  UNL1        0.0860
      9 C          62.2080   86.1024   12.5915 C.3     1  UNL1        0.0697
     10 O          61.7386   80.3598   14.8957 O.2     1  UNL1       -0.2744
     11 C          62.2993   81.0349   13.6791 C.2     1  UNL1        0.2293
     12 N          62.6848   80.3609   12.3957 N.am    1  UNL1       -0.2839
     13 C          63.1967   81.4118   11.4558 C.ar    1  UNL1        0.0467
     14 C          63.7168   81.3346   10.0510 C.ar    1  UNL1        0.0144
     15 C          64.1678   82.5810    9.3487 C.ar    1  UNL1        0.0013
     16 C          64.0986   83.9045   10.0512 C.ar    1  UNL1       -0.0002
     17 C          63.5784   83.9817   11.4560 C.ar    1  UNL1       -0.0026
     18 C          63.1275   82.7354   12.1583 C.ar    1  UNL1       -0.0008
     19 C          62.5728   82.5024   13.5323 C.3     1  UNL1        0.0927
     20 C          62.1099   82.8864   14.9064 C.3     1  UNL1        0.0179
     21 C          62.6217   83.9373   13.9666 C.3     1  UNL1        0.0315
     22 H          62.6143   79.3978   12.2040 H       1  UNL1        0.1549
     23 C          64.6293   90.7070   13.0876 C.2     1  UNL1        0.0210
     24 C          65.4636   90.4479   14.3069 C.2     1  UNL1        0.0031
     25 C          66.3991   91.5050   14.8142 C.ar    1  UNL1        0.0192
     26 C          67.7530   91.6705   14.1901 C.ar    1  UNL1        0.0031
     27 C          68.6886   92.7277   14.6973 C.ar    1  UNL1        0.0207
     28 C          68.2702   93.6193   15.8287 C.ar    1  UNL1        0.0989
     29 N          66.9162   93.4538   16.4528 N.ar    1  UNL1       -0.2423
     30 C          65.9807   92.3967   15.9456 C.ar    1  UNL1        0.0988
@<TRIPOS>BOND
     1    10    11    2
     2    11    12   am
     3    12    13    1
     4    13    14   ar
     5    14    15   ar
     6    15    16   ar
     7    16    17   ar
     8    17    18   ar
     9    18    19    1
    10    19    20    1
    11    20    21    1
    12    21     1    1
    13     1     2    2
    14     2     3    1
    15     3     4    2
    16     4     5    1
    17     5    23    1
    18    23    24    2
    19    24    25    1
    20    25    26   ar
    21    26    27   ar
    22    27    28   ar
    23    28    29   ar
    24    29    30   ar
    25     5     6    2
    26     6     7    1
    27     7     8    2
    28     8     9    1
    29    19    11    1
    30     9     1    1
    31    18    13   ar
    32    21    19    1
    33     8     4    1
    34    30    25   ar
    35    12    22    1
@<TRIPOS>MOLECULE
*****
 30 35 0 0 0
SMALL
GASTEIGER

@<TRIPOS>ATOM
      1 C          62.0096   85.4059   10.7683 C.2     1  UNL1       -0.0378
      2 C          62.3711   85.8441    9.3799 C.2     1  UNL1       -0.0080
      3 C          61.8454   87.1421    8.8425 C.2     1  UNL1        0.0022
      4 C          60.9583   88.0019    9.6934 C.2     1  UNL1        0.0350
      5 C          60.2943   89.3221    9.4365 C.2     1  UNL1        0.1040
      6 N          59.5224   89.6998   10.6660 N.2     1  UNL1       -0.1483
      7 N          59.7096   88.6129   11.6827 N.2     1  UNL1       -0.1520
      8 C          60.5969   87.5636   11.0816 C.2     1  UNL1        0.0860
      9 C          61.1226   86.2656   11.6191 C.3     1  UNL1        0.0697
     10 O          63.7719   80.7221   12.5096 O.2     1  UNL1       -0.2744
     11 C          63.9200   82.1378   12.9828 C.2     1  UNL1        0.2293
     12 N          64.6872   82.5881   14.1905 N.am    1  UNL1       -0.2839
     13 C          64.5682   84.0804   14.2854 C.ar    1  UNL1        0.0467
     14 C          65.1169   85.0704   15.2697 C.ar    1  UNL1        0.0144
     15 C          64.8248   86.5324   15.1049 C.ar    1  UNL1        0.0013
     16 C          63.9840   87.0044   13.9559 C.ar    1  UNL1       -0.0002
     17 C          63.4354   86.0144   12.9716 C.ar    1  UNL1       -0.0026
     18 C          63.7275   84.5524   13.1363 C.ar    1  UNL1       -0.0008
     19 C          63.3269   83.3518   12.3313 C.3     1  UNL1        0.0927
     20 C          62.6543   82.6156   11.2108 C.3     1  UNL1        0.0179
     21 C          62.5354   84.1078   11.3057 C.3     1  UNL1        0.0315
     22 H          65.1819   82.0064   14.8118 H       1  UNL1        0.1549
     23 C          60.3860   90.1239    8.1720 C.2     1  UNL1        0.0210
     24 C          59.4145   89.8779    7.0559 C.2     1  UNL1        0.0031
     25 C          59.5062   90.6797    5.7915 C.ar    1  UNL1        0.0192
     26 C          60.8304   90.8556    5.1092 C.ar    1  UNL1        0.0031
     27 C          60.9221   91.6574    3.8448 C.ar    1  UNL1        0.0207
     28 C          59.6895   92.2833    3.2626 C.ar    1  UNL1        0.0989
     29 N          58.3652   92.1075    3.9449 N.ar    1  UNL1       -0.2423
     30 C          58.2735   91.3057    5.2093 C.ar    1  UNL1        0.0988
@<TRIPOS>BOND
     1    10    11    2
     2    11    12   am
     3    12    13    1
     4    13    14   ar
     5    14    15   ar
     6    15    16   ar
     7    16    17   ar
     8    17    18   ar
     9    18    19    1
    10    19    20    1
    11    20    21    1
    12    21     1    1
    13     1     2    2
    14     2     3    1
    15     3     4    2
    16     4     5    1
    17     5    23    1
    18    23    24    2
    19    24    25    1
    20    25    26   ar
    21    26    27   ar
    22    27    28   ar
    23    28    29   ar
    24    29    30   ar
    25     5     6    2
    26     6     7    1
    27     7     8    2
    28     8     9    1
    29    19    11    1
    30     9     1    1
    31    18    13   ar
    32    21    19    1
    33     8     4    1
    34    30    25   ar
    35    12    22    1
@<TRIPOS>MOLECULE
*****
 30 35 0 0 0
SMALL
GASTEIGER

@<TRIPOS>ATOM
      1 C          72.5117   73.1214   14.0810 C.2     1  UNL1       -0.0378
      2 C          72.9885   73.3329   12.6745 C.2     1  UNL1       -0.0080
      3 C          72.9166   74.6973   12.0554 C.2     1  UNL1        0.0022
      4 C          72.3679   75.8501   12.8427 C.2     1  UNL1        0.0350
      5 C          72.1744   77.2977   12.5004 C.2     1  UNL1        0.1040
      6 N          71.5780   77.9809   13.6953 N.2     1  UNL1       -0.1483
      7 N          71.4029   76.9554   14.7760 N.2     1  UNL1       -0.1520
      8 C          71.8910   75.6387   14.2491 C.2     1  UNL1        0.0860
      9 C          71.9630   74.2742   14.8682 C.3     1  UNL1        0.0697
     10 O          72.9204   68.3697   16.3895 O.2     1  UNL1       -0.2744
     11 C          72.0430   68.9390   15.3143 C.2     1  UNL1        0.2293
     12 N          70.9665   68.2030   14.5730 N.am    1  UNL1       -0.2839
     13 C          70.3462   69.1534   13.5922 C.ar    1  UNL1        0.0467
     14 C          69.2398   68.9847   12.5936 C.ar    1  UNL1        0.0144
     15 C          68.8265   70.1394   11.7299 C.ar    1  UNL1        0.0013
     16 C          69.5197   71.4627   11.8650 C.ar    1  UNL1       -0.0002
     17 C          70.6261   71.6314   12.8636 C.ar    1  UNL1       -0.0026
     18 C          71.0394   70.4767   13.7272 C.ar    1  UNL1       -0.0008
     19 C          72.0880   70.3442   14.7915 C.3     1  UNL1        0.0927
     20 C          73.2039   70.8067   15.6809 C.3     1  UNL1        0.0179
     21 C          72.5837   71.7570   14.7001 C.3     1  UNL1        0.0315
     22 H          70.7118   67.2615   14.7068 H       1  UNL1        0.1549
     23 C          72.5172   77.9479   11.1929 C.2     1  UNL1        0.0210
     24 C          72.4572   79.4407   11.0592 C.2     1  UNL1        0.0031
     25 C          72.8000   80.0910    9.7516 C.ar    1  UNL1        0.0192
     26 C          73.0306   79.2481    8.5325 C.ar    1  UNL1        0.0031
     27 C          73.3733   79.8984    7.2249 C.ar    1  UNL1        0.0207
     28 C          73.4854   81.3916    7.1365 C.ar    1  UNL1        0.0989
     29 N          73.2548   82.2346    8.3557 N.ar    1  UNL1       -0.2423
     30 C          72.9121   81.5843    9.6632 C.ar    1  UNL1        0.0988
@<TRIPOS>BOND
     1    10    11    2
     2    11    12   am
     3    12    13    1
     4    13    14   ar
     5    14    15   ar
     6    15    16   ar
     7    16    17   ar
     8    17    18   ar
     9    18    19    1
    10    19    20    1
    11    20    21    1
    12    21     1    1
    13     1     2    2
    14     2     3    1
    15     3     4    2
    16     4     5    1
    17     5    23    1
    18    23    24    2
    19    24    25    1
    20    25    26   ar
    21    26    27   ar
    22    27    28   ar
    23    28    29   ar
    24    29    30   ar
    25     5     6    2
    26     6     7    1
    27     7     8    2
    28     8     9    1
    29    19    11    1
    30     9     1    1
    31    18    13   ar
    32    21    19    1
    33     8     4    1
    34    30    25   ar
    35    12    22    1
@<TRIPOS>MOLECULE
*****
 30 35 0 0 0
SMALL
GASTEIGER

@<TRIPOS>ATOM
      1 C          62.0739   87.5571   11.2152 C.2     1  UNL1       -0.0378
      2 C          62.4861   88.8306   10.5379 C.2     1  UNL1       -0.0080
      3 C          61.7191   89.3305    9.3497 C.2     1  UNL1        0.0022
      4 C          60.5399   88.5569    8.8388 C.2     1  UNL1        0.0350
      5 C          59.5986   88.8002    7.6965 C.2     1  UNL1        0.1040
      6 N          58.6046   87.6771    7.6677 N.2     1  UNL1       -0.1483
      7 N          58.9316   86.7398    8.7922 N.2     1  UNL1       -0.1520
      8 C          60.1276   87.2835    9.5159 C.2     1  UNL1        0.0860
      9 C          60.8947   86.7837   10.7042 C.3     1  UNL1        0.0697
     10 O          64.7442   85.9720   15.5084 O.2     1  UNL1       -0.2744
     11 C          64.4293   85.3469   14.1817 C.2     1  UNL1        0.2293
     12 N          64.8499   83.9801   13.7290 N.am    1  UNL1       -0.2839
     13 C          64.3191   83.7673   12.3422 C.ar    1  UNL1        0.0467
     14 C          64.4207   82.6084   11.3955 C.ar    1  UNL1        0.0144
     15 C          63.7737   82.6847   10.0444 C.ar    1  UNL1        0.0013
     16 C          63.0251   83.9201    9.6400 C.ar    1  UNL1       -0.0002
     17 C          62.9235   85.0790   10.5868 C.ar    1  UNL1       -0.0026
     18 C          63.5705   85.0027   11.9379 C.ar    1  UNL1       -0.0008
     19 C          63.6386   85.9789   13.0747 C.3     1  UNL1        0.0927
     20 C          63.3717   87.2700   13.7901 C.3     1  UNL1        0.0179
     21 C          62.8409   87.0573   12.4034 C.3     1  UNL1        0.0315
     22 H          65.3810   83.3358   14.2505 H       1  UNL1        0.1549
     23 C          59.6435   89.9624    6.7492 C.2     1  UNL1        0.0210
     24 C          60.5505   89.9222    5.5552 C.2     1  UNL1        0.0031
     25 C          60.5953   91.0845    4.6080 C.ar    1  UNL1        0.0192
     26 C          61.8165   91.3226    3.7702 C.ar    1  UNL1        0.0031
     27 C          61.8614   92.4848    2.8230 C.ar    1  UNL1        0.0207
     28 C          60.6849   93.4089    2.7135 C.ar    1  UNL1        0.0989
     29 N          59.4636   93.1708    3.5513 N.ar    1  UNL1       -0.2423
     30 C          59.4188   92.0086    4.4985 C.ar    1  UNL1        0.0988
@<TRIPOS>BOND
     1    10    11    2
     2    11    12   am
     3    12    13    1
     4    13    14   ar
     5    14    15   ar
     6    15    16   ar
     7    16    17   ar
     8    17    18   ar
     9    18    19    1
    10    19    20    1
    11    20    21    1
    12    21     1    1
    13     1     2    2
    14     2     3    1
    15     3     4    2
    16     4     5    1
    17     5    23    1
    18    23    24    2
    19    24    25    1
    20    25    26   ar
    21    26    27   ar
    22    27    28   ar
    23    28    29   ar
    24    29    30   ar
    25     5     6    2
    26     6     7    1
    27     7     8    2
    28     8     9    1
    29    19    11    1
    30     9     1    1
    31    18    13   ar
    32    21    19    1
    33     8     4    1
    34    30    25   ar
    35    12    22    1
