@<TRIPOS>MOLECULE
*****
 45 50 0 0 0
SMALL
GASTEIGER

@<TRIPOS>ATOM
      1 N          60.2835   88.8775   10.3321 N.am    1  UNL1       -0.2222
      2 C          59.9352   89.9661    9.3605 C.2     1  UNL1        0.3219
      3 O          59.3920   91.3197    9.7105 O.2     1  UNL1       -0.2512
      4 N          60.2257   89.4632    7.9774 N.am    1  UNL1       -0.1907
      5 C          60.7534   88.0640    8.0942 C.2     1  UNL1        0.2529
      6 O          61.1719   87.1816    6.9558 O.2     1  UNL1       -0.2724
      7 C          60.7892   87.7020    9.5495 C.3     1  UNL1        0.1391
      8 C          60.7679   87.4835   11.0334 C.3     1  UNL1        0.0449
      9 C          61.2285   86.1757   11.6055 C.3     1  UNL1        0.0746
     10 N          61.7102   85.0863   10.6939 N.3     1  UNL1       -0.2676
     11 C          61.7315   85.3048    9.2100 C.3     1  UNL1        0.0746
     12 C          61.2709   86.6126    8.6379 C.3     1  UNL1        0.0449
     13 C          61.1872   89.4442   14.1547 C.ar    1  UNL1        0.2293
     14 C          61.3211   89.3701   12.6625 C.ar    1  UNL1        0.0924
     15 C          60.1496   88.9516   11.8243 C.ar    1  UNL1        0.1453
     16 N          58.8444   88.6073   12.4782 N.ar    1  UNL1       -0.2084
     17 C          58.7104   88.6813   13.9703 C.ar    1  UNL1        0.2027
     18 N          59.8819   89.0998   14.8086 N.ar    1  UNL1       -0.1892
     19 C          63.5857   90.4254   14.3392 C.3     1  UNL1        0.2542
     20 O          62.3585   89.8626   14.9930 O.3     1  UNL1       -0.4560
     21 C          60.0238   90.2257    6.7016 C.ar    1  UNL1        0.0622
     22 C          61.2056   90.6042    5.8591 C.ar    1  UNL1        0.0154
     23 C          61.0037   91.3667    4.5832 C.ar    1  UNL1        0.0013
     24 C          59.6200   91.7507    4.1499 C.ar    1  UNL1        0.0001
     25 C          58.4380   91.3722    4.9925 C.ar    1  UNL1        0.0013
     26 C          58.6400   90.6097    6.2683 C.ar    1  UNL1        0.0154
     27 C          59.4181   92.5132    2.8740 C.ar    1  UNL1        0.0000
     28 C          58.4419   92.0159    1.8495 C.ar    1  UNL1        0.0001
     29 C          58.2400   92.7784    0.5736 C.ar    1  UNL1        0.0045
     30 C          59.0143   94.0383    0.3224 C.ar    1  UNL1        0.0536
     31 C          59.9905   94.5356    1.3469 C.ar    1  UNL1        0.0045
     32 C          60.1924   93.7732    2.6227 C.ar    1  UNL1        0.0001
     33 C          58.8124   94.8008   -0.9535 C.2     1  UNL1        0.2491
     34 O          57.6578   95.7491   -1.0858 O.2     1  UNL1       -0.2699
     35 N          59.7653   94.6150   -2.0971 N.am    1  UNL1       -0.2726
     36 C          59.5633   95.3775   -3.3729 C.3     1  UNL1        0.1152
     37 C          60.9199   93.6667   -1.9648 C.3     1  UNL1        0.1152
     38 C          62.1708   83.7784   11.2661 C.3     1  UNL1        0.1183
     39 C          62.8647   83.7442   12.5955 C.ar    1  UNL1        0.0712
     40 N          63.7176   84.9005   13.0262 N.ar    1  UNL1       -0.2471
     41 C          64.4116   84.8663   14.3557 C.ar    1  UNL1        0.0985
     42 C          64.2527   83.6758   15.2542 C.ar    1  UNL1        0.0203
     43 C          63.3998   82.5195   14.8234 C.ar    1  UNL1       -0.0015
     44 C          62.7058   82.5537   13.4941 C.ar    1  UNL1       -0.0069
     45 C          61.8529   81.3974   13.0633 C.3     1  UNL1        0.0323
@<TRIPOS>BOND
     1    19    20    1
     2    20    13    1
     3    13    14   ar
     4    14    15   ar
     5    15     1    1
     6     1     2   am
     7     2     3    2
     8     2     4   am
     9     4    21    1
    10    21    22   ar
    11    22    23   ar
    12    23    24   ar
    13    24    27    1
    14    27    28   ar
    15    28    29   ar
    16    29    30   ar
    17    30    33    1
    18    33    34    2
    19    33    35   am
    20    35    36    1
    21    35    37    1
    22    30    31   ar
    23    31    32   ar
    24    24    25   ar
    25    25    26   ar
    26     4     5   am
    27     5     6    2
    28     5     7    1
    29     7     8    1
    30     8     9    1
    31     9    10    1
    32    10    38    1
    33    38    39    1
    34    39    40   ar
    35    40    41   ar
    36    41    42   ar
    37    42    43   ar
    38    43    44   ar
    39    44    45    1
    40    10    11    1
    41    11    12    1
    42    15    16   ar
    43    16    17   ar
    44    17    18   ar
    45    18    13   ar
    46     7     1    1
    47    44    39   ar
    48    26    21   ar
    49    12     7    1
    50    32    27   ar
@<TRIPOS>MOLECULE
*****
 45 50 0 0 0
SMALL
GASTEIGER

@<TRIPOS>ATOM
      1 N          60.1459   88.8997   10.0607 N.am    1  UNL1       -0.2222
      2 C          59.8055   89.9977    9.0970 C.2     1  UNL1        0.3219
      3 O          59.2063   91.3266    9.4504 O.2     1  UNL1       -0.2512
      4 N          60.1696   89.5333    7.7179 N.am    1  UNL1       -0.1907
      5 C          60.7349   88.1484    7.8293 C.2     1  UNL1        0.2529
      6 O          61.2283   87.3034    6.6924 O.2     1  UNL1       -0.2724
      7 C          60.7203   87.7567    9.2772 C.3     1  UNL1        0.1391
      8 C          60.6431   87.5062   10.7541 C.3     1  UNL1        0.0449
      9 C          61.1192   86.2010   11.3193 C.3     1  UNL1        0.0746
     10 N          61.6726   85.1462   10.4076 N.3     1  UNL1       -0.2676
     11 C          61.7498   85.3967    8.9307 C.3     1  UNL1        0.0746
     12 C          61.2736   86.7020    8.3655 C.3     1  UNL1        0.0449
     13 C          58.4294   88.5724   13.6239 C.ar    1  UNL1        0.2293
     14 C          58.6285   88.5341   12.1377 C.ar    1  UNL1        0.0924
     15 C          59.9468   88.9379   11.5470 C.ar    1  UNL1        0.1453
     16 N          61.0660   89.3800   12.4425 N.ar    1  UNL1       -0.2084
     17 C          60.8670   89.4183   13.9286 C.ar    1  UNL1        0.2027
     18 N          59.5486   89.0144   14.5194 N.ar    1  UNL1       -0.1892
     19 C          55.9817   87.7572   13.3174 C.3     1  UNL1        0.2542
     20 O          57.1112   88.1685   14.2147 O.3     1  UNL1       -0.4560
     21 C          59.9983   90.3163    6.4501 C.ar    1  UNL1        0.0622
     22 C          61.1957   90.6660    5.6170 C.ar    1  UNL1        0.0154
     23 C          61.0244   91.4491    4.3491 C.ar    1  UNL1        0.0013
     24 C          59.6558   91.8825    3.9143 C.ar    1  UNL1        0.0001
     25 C          58.4584   91.5328    4.7474 C.ar    1  UNL1        0.0013
     26 C          58.6297   90.7497    6.0153 C.ar    1  UNL1        0.0154
     27 C          59.4846   92.6656    2.6465 C.ar    1  UNL1        0.0000
     28 C          60.1347   94.0095    2.5014 C.ar    1  UNL1        0.0001
     29 C          59.9634   94.7926    1.2336 C.ar    1  UNL1        0.0045
     30 C          59.1420   94.2316    0.1108 C.ar    1  UNL1        0.0536
     31 C          58.4919   92.8876    0.2558 C.ar    1  UNL1        0.0045
     32 C          58.6632   92.1046    1.5236 C.ar    1  UNL1        0.0001
     33 C          58.9708   95.0147   -1.1571 C.2     1  UNL1        0.2491
     34 O          57.8481   96.0014   -1.2834 O.2     1  UNL1       -0.2699
     35 N          59.9223   94.8110   -2.2987 N.am    1  UNL1       -0.2726
     36 C          59.7510   95.5942   -3.5666 C.3     1  UNL1        0.1152
     37 C          61.0450   93.8244   -2.1725 C.3     1  UNL1        0.1152
     38 C          62.1488   83.8408   10.9728 C.3     1  UNL1        0.1183
     39 C          62.8542   83.8093   12.2962 C.ar    1  UNL1        0.0712
     40 N          63.4317   85.0699   12.8684 N.ar    1  UNL1       -0.2471
     41 C          64.1372   85.0383   14.1919 C.ar    1  UNL1        0.0985
     42 C          64.2651   83.7463   14.9430 C.ar    1  UNL1        0.0203
     43 C          63.6875   82.4857   14.3707 C.ar    1  UNL1       -0.0015
     44 C          62.9821   82.5172   13.0473 C.ar    1  UNL1       -0.0069
     45 C          62.4046   81.2567   12.4751 C.3     1  UNL1        0.0323
@<TRIPOS>BOND
     1    19    20    1
     2    20    13    1
     3    13    14   ar
     4    14    15   ar
     5    15     1    1
     6     1     2   am
     7     2     3    2
     8     2     4   am
     9     4    21    1
    10    21    22   ar
    11    22    23   ar
    12    23    24   ar
    13    24    27    1
    14    27    28   ar
    15    28    29   ar
    16    29    30   ar
    17    30    33    1
    18    33    34    2
    19    33    35   am
    20    35    36    1
    21    35    37    1
    22    30    31   ar
    23    31    32   ar
    24    24    25   ar
    25    25    26   ar
    26     4     5   am
    27     5     6    2
    28     5     7    1
    29     7     8    1
    30     8     9    1
    31     9    10    1
    32    10    38    1
    33    38    39    1
    34    39    40   ar
    35    40    41   ar
    36    41    42   ar
    37    42    43   ar
    38    43    44   ar
    39    44    45    1
    40    10    11    1
    41    11    12    1
    42    15    16   ar
    43    16    17   ar
    44    17    18   ar
    45    18    13   ar
    46     7     1    1
    47    44    39   ar
    48    26    21   ar
    49    12     7    1
    50    32    27   ar
