@<TRIPOS>MOLECULE
*****
 24 26 0 0 0
SMALL
GASTEIGER

@<TRIPOS>ATOM
      1 N          61.4281   89.7537   12.6799 N.pl3   1  UNL1       -0.2150
      2 H          60.6137   90.0170   13.1665 H       1  UNL1        0.1737
      3 C          62.7609   90.3017   13.0964 C.ar    1  UNL1        0.0649
      4 C          63.2790   90.0428   14.4800 C.ar    1  UNL1        0.0173
      5 C          64.6117   90.5908   14.8965 C.ar    1  UNL1        0.0189
      6 C          65.4264   91.3976   13.9293 C.ar    1  UNL1        0.0656
      7 C          64.9082   91.6565   12.5457 C.ar    1  UNL1        0.0189
      8 C          63.5755   91.1085   12.1292 C.ar    1  UNL1        0.0173
      9 N          66.7592   91.9457   14.3458 N.ar    1  UNL1       -0.2864
     10 C          67.0742   92.5923   15.6621 C.ar    1  UNL1        0.1022
     11 C          68.5206   92.9895   15.6490 C.ar    1  UNL1        0.1196
     12 N          69.0995   92.5883   14.3246 N.ar    1  UNL1       -0.2220
     13 C          68.0108   91.9432   13.5192 C.ar    1  UNL1        0.1828
     14 O          60.2545   89.6488   10.9159 O.2     1  UNL1       -0.1499
     15 S          61.3361   88.8046   11.5220 S.O2    1  UNL1        0.0736
     16 O          62.4176   87.9603   12.1281 O.2     1  UNL1       -0.1499
     17 C          61.2441   87.8554   10.3641 C.ar    1  UNL1        0.1268
     18 C          62.3478   86.8715   10.1114 C.ar    1  UNL1        0.0316
     19 C          62.2559   85.9224    8.9535 C.ar    1  UNL1        0.0599
     20 CL         63.3596   84.9386    8.7007 Cl      1  UNL1       -0.0822
     21 C          61.0602   85.9570    8.0485 C.ar    1  UNL1        0.0229
     22 C          59.9565   86.9408    8.3013 C.ar    1  UNL1        0.0599
     23 CL         58.7607   86.9754    7.3962 Cl      1  UNL1       -0.0822
     24 C          60.0484   87.8900    9.4591 C.ar    1  UNL1        0.0316
@<TRIPOS>BOND
     1    14    15    2
     2    15    16    2
     3    15     1    1
     4     1     3    1
     5     3     4   ar
     6     4     5   ar
     7     5     6   ar
     8     6     9    1
     9     9    10   ar
    10    10    11   ar
    11    11    12   ar
    12    12    13   ar
    13     6     7   ar
    14     7     8   ar
    15    15    17    1
    16    17    18   ar
    17    18    19   ar
    18    19    20    1
    19    19    21   ar
    20    21    22   ar
    21    22    23    1
    22    22    24   ar
    23     8     3   ar
    24    24    17   ar
    25    13     9   ar
    26     1     2    1
@<TRIPOS>MOLECULE
*****
 24 26 0 0 0
SMALL
GASTEIGER

@<TRIPOS>ATOM
      1 N          61.4243   89.7556   12.6735 N.pl3   1  UNL1       -0.2150
      2 H          60.6082   90.0227   13.1551 H       1  UNL1        0.1737
      3 C          62.7566   90.3004   13.0958 C.ar    1  UNL1        0.0649
      4 C          63.2648   90.0465   14.4840 C.ar    1  UNL1        0.0173
      5 C          64.5971   90.5913   14.9062 C.ar    1  UNL1        0.0189
      6 C          65.4211   91.3900   13.9402 C.ar    1  UNL1        0.0656
      7 C          64.9128   91.6438   12.5520 C.ar    1  UNL1        0.0189
      8 C          63.5806   91.0991   12.1298 C.ar    1  UNL1        0.0173
      9 N          66.7534   91.9347   14.3625 N.ar    1  UNL1       -0.2864
     10 C          67.0739   92.5466   15.6940 C.ar    1  UNL1        0.1022
     11 C          68.5176   92.9533   15.6819 C.ar    1  UNL1        0.1196
     12 N          69.0894   92.5928   14.3428 N.ar    1  UNL1       -0.2220
     13 C          67.9991   91.9633   13.5274 C.ar    1  UNL1        0.1828
     14 O          60.2641   89.6536   10.9005 O.2     1  UNL1       -0.1499
     15 S          61.3354   88.8040   11.5175 S.O2    1  UNL1        0.0736
     16 O          62.4066   87.9545   12.1344 O.2     1  UNL1       -0.1499
     17 C          61.2465   87.8523   10.3614 C.ar    1  UNL1        0.1268
     18 C          60.0504   87.8809    9.4567 C.ar    1  UNL1        0.0316
     19 C          59.9615   86.9293    8.3007 C.ar    1  UNL1        0.0599
     20 CL         58.7654   86.9579    7.3960 Cl      1  UNL1       -0.0822
     21 C          61.0687   85.9491    8.0493 C.ar    1  UNL1        0.0229
     22 C          62.2648   85.9205    8.9540 C.ar    1  UNL1        0.0599
     23 CL         63.3720   84.9402    8.7027 Cl      1  UNL1       -0.0822
     24 C          62.3537   86.8721   10.1101 C.ar    1  UNL1        0.0316
@<TRIPOS>BOND
     1    14    15    2
     2    15    16    2
     3    15     1    1
     4     1     3    1
     5     3     4   ar
     6     4     5   ar
     7     5     6   ar
     8     6     9    1
     9     9    10   ar
    10    10    11   ar
    11    11    12   ar
    12    12    13   ar
    13     6     7   ar
    14     7     8   ar
    15    15    17    1
    16    17    18   ar
    17    18    19   ar
    18    19    20    1
    19    19    21   ar
    20    21    22   ar
    21    22    23    1
    22    22    24   ar
    23     8     3   ar
    24    24    17   ar
    25    13     9   ar
    26     1     2    1
@<TRIPOS>MOLECULE
*****
 24 26 0 0 0
SMALL
GASTEIGER

@<TRIPOS>ATOM
      1 N          63.6153   91.7103   12.6855 N.pl3   1  UNL1       -0.2150
      2 H          62.8561   92.2409   13.0193 H       1  UNL1        0.1737
      3 C          63.6942   90.2427   12.9858 C.ar    1  UNL1        0.0649
      4 C          64.3859   89.7677   14.2291 C.ar    1  UNL1        0.0173
      5 C          64.4648   88.3002   14.5293 C.ar    1  UNL1        0.0189
      6 C          63.8520   87.3077   13.5861 C.ar    1  UNL1        0.0656
      7 C          63.1603   87.7828   12.3428 C.ar    1  UNL1        0.0189
      8 C          63.0814   89.2503   12.0426 C.ar    1  UNL1        0.0173
      9 N          63.9309   85.8402   13.8863 N.ar    1  UNL1       -0.2864
     10 C          63.5431   84.7281   12.9574 C.ar    1  UNL1        0.1022
     11 C          63.7840   83.4277   13.6651 C.ar    1  UNL1        0.1196
     12 N          64.3208   83.7360   15.0314 N.ar    1  UNL1       -0.2220
     13 C          64.4116   85.2270   15.1681 C.ar    1  UNL1        0.1828
     14 O          65.3711   92.8105   13.1400 O.2     1  UNL1       -0.1499
     15 S          64.6930   92.3694   11.8768 S.O2    1  UNL1        0.0736
     16 O          64.0149   91.9283   10.6137 O.2     1  UNL1       -0.1499
     17 C          65.7707   93.0286   11.0680 C.ar    1  UNL1        0.1268
     18 C          66.7844   92.1915   10.3457 C.ar    1  UNL1        0.0316
     19 C          67.8621   92.8506    9.5369 C.ar    1  UNL1        0.0599
     20 CL         68.8758   92.0135    8.8145 Cl      1  UNL1       -0.0822
     21 C          67.9261   94.3467    9.4505 C.ar    1  UNL1        0.0229
     22 C          66.9125   95.1837   10.1729 C.ar    1  UNL1        0.0599
     23 CL         66.9765   96.6799   10.0864 Cl      1  UNL1       -0.0822
     24 C          65.8348   94.5247   10.9816 C.ar    1  UNL1        0.0316
@<TRIPOS>BOND
     1    14    15    2
     2    15    16    2
     3    15     1    1
     4     1     3    1
     5     3     4   ar
     6     4     5   ar
     7     5     6   ar
     8     6     9    1
     9     9    10   ar
    10    10    11   ar
    11    11    12   ar
    12    12    13   ar
    13     6     7   ar
    14     7     8   ar
    15    15    17    1
    16    17    18   ar
    17    18    19   ar
    18    19    20    1
    19    19    21   ar
    20    21    22   ar
    21    22    23    1
    22    22    24   ar
    23     8     3   ar
    24    24    17   ar
    25    13     9   ar
    26     1     2    1
@<TRIPOS>MOLECULE
*****
 24 26 0 0 0
SMALL
GASTEIGER

@<TRIPOS>ATOM
      1 N          63.5505   91.6097   12.6719 N.pl3   1  UNL1       -0.2150
      2 H          62.7723   92.1274   12.9810 H       1  UNL1        0.1737
      3 C          63.6536   90.1477   12.9911 C.ar    1  UNL1        0.0649
      4 C          64.3517   89.7003   14.2411 C.ar    1  UNL1        0.0173
      5 C          64.4548   88.2384   14.5603 C.ar    1  UNL1        0.0189
      6 C          63.8596   87.2237   13.6296 C.ar    1  UNL1        0.0656
      7 C          63.1614   87.6710   12.3796 C.ar    1  UNL1        0.0189
      8 C          63.0584   89.1330   12.0604 C.ar    1  UNL1        0.0173
      9 N          63.9626   85.7617   13.9488 N.ar    1  UNL1       -0.2864
     10 C          63.7818   84.6324   12.9782 C.ar    1  UNL1        0.1022
     11 C          63.9720   83.3450   13.7242 C.ar    1  UNL1        0.1196
     12 N          64.2704   83.6787   15.1559 N.ar    1  UNL1       -0.2220
     13 C          64.2646   85.1722   15.2947 C.ar    1  UNL1        0.1828
     14 O          65.2853   92.7303   13.1563 O.2     1  UNL1       -0.1499
     15 S          64.6333   92.2830   11.8817 S.O2    1  UNL1        0.0736
     16 O          63.9812   91.8356   10.6071 O.2     1  UNL1       -0.1499
     17 C          65.7160   92.9562   11.0914 C.ar    1  UNL1        0.1268
     18 C          65.7779   94.4536   11.0283 C.ar    1  UNL1        0.0316
     19 C          66.8606   95.1269   10.2381 C.ar    1  UNL1        0.0599
     20 CL         66.9225   96.6243   10.1750 Cl      1  UNL1       -0.0822
     21 C          67.8814   94.3027    9.5110 C.ar    1  UNL1        0.0229
     22 C          67.8195   92.8054    9.5741 C.ar    1  UNL1        0.0599
     23 CL         68.8403   91.9812    8.8469 Cl      1  UNL1       -0.0822
     24 C          66.7368   92.1321   10.3643 C.ar    1  UNL1        0.0316
@<TRIPOS>BOND
     1    14    15    2
     2    15    16    2
     3    15     1    1
     4     1     3    1
     5     3     4   ar
     6     4     5   ar
     7     5     6   ar
     8     6     9    1
     9     9    10   ar
    10    10    11   ar
    11    11    12   ar
    12    12    13   ar
    13     6     7   ar
    14     7     8   ar
    15    15    17    1
    16    17    18   ar
    17    18    19   ar
    18    19    20    1
    19    19    21   ar
    20    21    22   ar
    21    22    23    1
    22    22    24   ar
    23     8     3   ar
    24    24    17   ar
    25    13     9   ar
    26     1     2    1
@<TRIPOS>MOLECULE
*****
 24 26 0 0 0
SMALL
GASTEIGER

@<TRIPOS>ATOM
      1 N          62.1856   89.3279   12.2876 N.pl3   1  UNL1       -0.2150
      2 H          61.4598   89.5056   12.9286 H       1  UNL1        0.1737
      3 C          63.1209   90.4309   11.8889 C.ar    1  UNL1        0.0649
      4 C          63.1044   90.9572   10.4845 C.ar    1  UNL1        0.0173
      5 C          64.0397   92.0601   10.0859 C.ar    1  UNL1        0.0189
      6 C          64.9914   92.6366   11.0917 C.ar    1  UNL1        0.0656
      7 C          65.0079   92.1102   12.4962 C.ar    1  UNL1        0.0189
      8 C          64.0727   91.0074   12.8948 C.ar    1  UNL1        0.0173
      9 N          65.9268   93.7395   10.6931 N.ar    1  UNL1       -0.2864
     10 C          65.7839   95.1891   11.0510 C.ar    1  UNL1        0.1022
     11 C          66.9379   95.9320   10.4457 C.ar    1  UNL1        0.1196
     12 N          67.7940   94.9414    9.7136 N.ar    1  UNL1       -0.2220
     13 C          67.1690   93.5864    9.8665 C.ar    1  UNL1        0.1828
     14 O          61.2809   88.2437   10.7047 O.2     1  UNL1       -0.1499
     15 S          62.3562   87.9543   11.7097 S.O2    1  UNL1        0.0736
     16 O          63.4314   87.6650   12.7147 O.2     1  UNL1       -0.1499
     17 C          62.5268   86.5806   11.1317 C.ar    1  UNL1        0.1268
     18 C          62.6365   85.3927   12.0410 C.ar    1  UNL1        0.0316
     19 C          62.8071   84.0191   11.4632 C.ar    1  UNL1        0.0599
     20 CL         62.9168   82.8312   12.3725 Cl      1  UNL1       -0.0822
     21 C          62.8680   83.8334    9.9760 C.ar    1  UNL1        0.0229
     22 C          62.7583   85.0213    9.0667 C.ar    1  UNL1        0.0599
     23 CL         62.8191   84.8355    7.5794 Cl      1  UNL1       -0.0822
     24 C          62.5877   86.3949    9.6445 C.ar    1  UNL1        0.0316
@<TRIPOS>BOND
     1    14    15    2
     2    15    16    2
     3    15     1    1
     4     1     3    1
     5     3     4   ar
     6     4     5   ar
     7     5     6   ar
     8     6     9    1
     9     9    10   ar
    10    10    11   ar
    11    11    12   ar
    12    12    13   ar
    13     6     7   ar
    14     7     8   ar
    15    15    17    1
    16    17    18   ar
    17    18    19   ar
    18    19    20    1
    19    19    21   ar
    20    21    22   ar
    21    22    23    1
    22    22    24   ar
    23     8     3   ar
    24    24    17   ar
    25    13     9   ar
    26     1     2    1
@<TRIPOS>MOLECULE
*****
 24 26 0 0 0
SMALL
GASTEIGER

@<TRIPOS>ATOM
      1 N          62.1972   89.3128   12.3267 N.pl3   1  UNL1       -0.2150
      2 H          61.4812   89.4886   12.9791 H       1  UNL1        0.1737
      3 C          63.1276   90.4164   11.9185 C.ar    1  UNL1        0.0649
      4 C          63.1152   90.9243   10.5073 C.ar    1  UNL1        0.0173
      5 C          64.0455   92.0279   10.0992 C.ar    1  UNL1        0.0189
      6 C          64.9882   92.6235   11.1025 C.ar    1  UNL1        0.0656
      7 C          65.0006   92.1156   12.5138 C.ar    1  UNL1        0.0189
      8 C          64.0703   91.0120   12.9218 C.ar    1  UNL1        0.0173
      9 N          65.9186   93.7272   10.6944 N.ar    1  UNL1       -0.2864
     10 C          65.7648   95.1804   11.0328 C.ar    1  UNL1        0.1022
     11 C          66.9172   95.9227   10.4238 C.ar    1  UNL1        0.1196
     12 N          67.7833   94.9282    9.7090 N.ar    1  UNL1       -0.2220
     13 C          67.1662   93.5713    9.8763 C.ar    1  UNL1        0.1828
     14 O          61.2633   88.2333   10.7575 O.2     1  UNL1       -0.1499
     15 S          62.3577   87.9413   11.7407 S.O2    1  UNL1        0.0736
     16 O          63.4522   87.6494   12.7240 O.2     1  UNL1       -0.1499
     17 C          62.5184   86.5698   11.1548 C.ar    1  UNL1        0.1268
     18 C          62.5967   86.3943    9.6672 C.ar    1  UNL1        0.0316
     19 C          62.7573   85.0228    9.0812 C.ar    1  UNL1        0.0599
     20 CL         62.8357   84.8473    7.5936 Cl      1  UNL1       -0.0822
     21 C          62.8396   83.8270    9.9829 C.ar    1  UNL1        0.0229
     22 C          62.7613   84.0025   11.4706 C.ar    1  UNL1        0.0599
     23 CL         62.8435   82.8066   12.3723 Cl      1  UNL1       -0.0822
     24 C          62.6006   85.3740   12.0565 C.ar    1  UNL1        0.0316
@<TRIPOS>BOND
     1    14    15    2
     2    15    16    2
     3    15     1    1
     4     1     3    1
     5     3     4   ar
     6     4     5   ar
     7     5     6   ar
     8     6     9    1
     9     9    10   ar
    10    10    11   ar
    11    11    12   ar
    12    12    13   ar
    13     6     7   ar
    14     7     8   ar
    15    15    17    1
    16    17    18   ar
    17    18    19   ar
    18    19    20    1
    19    19    21   ar
    20    21    22   ar
    21    22    23    1
    22    22    24   ar
    23     8     3   ar
    24    24    17   ar
    25    13     9   ar
    26     1     2    1
@<TRIPOS>MOLECULE
*****
 24 26 0 0 0
SMALL
GASTEIGER

@<TRIPOS>ATOM
      1 N          62.1441   89.9334   12.9474 N.pl3   1  UNL1       -0.2150
      2 H          61.4170   90.0445   13.6018 H       1  UNL1        0.1737
      3 C          61.9790   88.9856   11.7965 C.ar    1  UNL1        0.0649
      4 C          61.2172   89.4123   10.5769 C.ar    1  UNL1        0.0173
      5 C          61.0522   88.4646    9.4260 C.ar    1  UNL1        0.0189
      6 C          61.6489   87.0901    9.4948 C.ar    1  UNL1        0.0656
      7 C          62.4106   86.6634   10.7145 C.ar    1  UNL1        0.0189
      8 C          62.5757   87.6111   11.8653 C.ar    1  UNL1        0.0173
      9 N          61.4838   86.1423    8.3439 N.ar    1  UNL1       -0.2864
     10 C          62.5717   85.3268    7.7103 C.ar    1  UNL1        0.1022
     11 C          61.9622   84.5241    6.5994 C.ar    1  UNL1        0.1196
     12 N          60.4975   84.8436    6.5464 N.ar    1  UNL1       -0.2220
     13 C          60.2019   85.8437    7.6245 C.ar    1  UNL1        0.1828
     14 O          63.5116   90.8516   11.6109 O.2     1  UNL1       -0.1499
     15 S          63.4170   90.7118   13.1013 S.O2    1  UNL1        0.0736
     16 O          63.3223   90.5720   14.5917 O.2     1  UNL1       -0.1499
     17 C          64.6899   91.4903   13.2552 C.ar    1  UNL1        0.1268
     18 C          65.6015   91.2156   14.4144 C.ar    1  UNL1        0.0316
     19 C          66.8744   91.9940   14.5683 C.ar    1  UNL1        0.0599
     20 CL         67.7860   91.7194   15.7274 Cl      1  UNL1       -0.0822
     21 C          67.2357   93.0471   13.5632 C.ar    1  UNL1        0.0229
     22 C          66.3241   93.3218   12.4040 C.ar    1  UNL1        0.0599
     23 CL         66.6855   94.3750   11.3988 Cl      1  UNL1       -0.0822
     24 C          65.0512   92.5434   12.2501 C.ar    1  UNL1        0.0316
@<TRIPOS>BOND
     1    14    15    2
     2    15    16    2
     3    15     1    1
     4     1     3    1
     5     3     4   ar
     6     4     5   ar
     7     5     6   ar
     8     6     9    1
     9     9    10   ar
    10    10    11   ar
    11    11    12   ar
    12    12    13   ar
    13     6     7   ar
    14     7     8   ar
    15    15    17    1
    16    17    18   ar
    17    18    19   ar
    18    19    20    1
    19    19    21   ar
    20    21    22   ar
    21    22    23    1
    22    22    24   ar
    23     8     3   ar
    24    24    17   ar
    25    13     9   ar
    26     1     2    1
@<TRIPOS>MOLECULE
*****
 24 26 0 0 0
SMALL
GASTEIGER

@<TRIPOS>ATOM
      1 N          61.9966   89.8399   12.8414 N.pl3   1  UNL1       -0.2150
      2 H          61.2563   89.9252   13.4848 H       1  UNL1        0.1737
      3 C          61.8814   88.8890   11.6871 C.ar    1  UNL1        0.0649
      4 C          62.5629   87.5540   11.7442 C.ar    1  UNL1        0.0173
      5 C          62.4476   86.6031   10.5899 C.ar    1  UNL1        0.0189
      6 C          61.6508   86.9872    9.3785 C.ar    1  UNL1        0.0656
      7 C          60.9693   88.3222    9.3213 C.ar    1  UNL1        0.0189
      8 C          61.0846   89.2731   10.4756 C.ar    1  UNL1        0.0173
      9 N          61.5355   86.0362    8.2241 N.ar    1  UNL1       -0.2864
     10 C          62.6487   85.2154    7.6435 C.ar    1  UNL1        0.1022
     11 C          62.0881   84.4110    6.5083 C.ar    1  UNL1        0.1196
     12 N          60.6284   84.7347    6.3874 N.ar    1  UNL1       -0.2220
     13 C          60.2869   85.7391    7.4478 C.ar    1  UNL1        0.1828
     14 O          63.2858   90.9050   11.5363 O.2     1  UNL1       -0.1499
     15 S          63.2398   90.6610   13.0155 S.O2    1  UNL1        0.0736
     16 O          63.1939   90.4169   14.4948 O.2     1  UNL1       -0.1499
     17 C          64.4831   91.4820   13.1897 C.ar    1  UNL1        0.1268
     18 C          64.9998   92.3112   12.0515 C.ar    1  UNL1        0.0316
     19 C          66.2430   93.1322   12.2256 C.ar    1  UNL1        0.0599
     20 CL         66.7597   93.9614   11.0874 Cl      1  UNL1       -0.0822
     21 C          66.9695   93.1241   13.5379 C.ar    1  UNL1        0.0229
     22 C          66.4527   92.2949   14.6761 C.ar    1  UNL1        0.0599
     23 CL         67.1793   92.2867   15.9884 Cl      1  UNL1       -0.0822
     24 C          65.2095   91.4738   14.5020 C.ar    1  UNL1        0.0316
@<TRIPOS>BOND
     1    14    15    2
     2    15    16    2
     3    15     1    1
     4     1     3    1
     5     3     4   ar
     6     4     5   ar
     7     5     6   ar
     8     6     9    1
     9     9    10   ar
    10    10    11   ar
    11    11    12   ar
    12    12    13   ar
    13     6     7   ar
    14     7     8   ar
    15    15    17    1
    16    17    18   ar
    17    18    19   ar
    18    19    20    1
    19    19    21   ar
    20    21    22   ar
    21    22    23    1
    22    22    24   ar
    23     8     3   ar
    24    24    17   ar
    25    13     9   ar
    26     1     2    1
@<TRIPOS>MOLECULE
*****
 24 26 0 0 0
SMALL
GASTEIGER

@<TRIPOS>ATOM
      1 N          62.4558   89.5433   11.6287 N.pl3   1  UNL1       -0.2150
      2 H          61.6750   89.8487   11.1126 H       1  UNL1        0.1737
      3 C          62.6252   88.0858   11.9406 C.ar    1  UNL1        0.0649
      4 C          61.8800   87.0567   11.1435 C.ar    1  UNL1        0.0173
      5 C          62.0495   85.5993   11.4553 C.ar    1  UNL1        0.0189
      6 C          62.9642   85.1711   12.5644 C.ar    1  UNL1        0.0656
      7 C          63.7094   86.2002   13.3615 C.ar    1  UNL1        0.0189
      8 C          63.5399   87.6576   13.0496 C.ar    1  UNL1        0.0173
      9 N          63.1337   83.7136   12.8763 N.ar    1  UNL1       -0.2864
     10 C          62.8918   82.5755   11.9296 C.ar    1  UNL1        0.1022
     11 C          63.1834   81.2969   12.6577 C.ar    1  UNL1        0.1196
     12 N          63.6055   81.6449   14.0545 N.ar    1  UNL1       -0.2220
     13 C          63.5748   83.1385   14.1895 C.ar    1  UNL1        0.1828
     14 O          63.8961   90.7818   10.6846 O.2     1  UNL1       -0.1499
     15 S          63.4758   90.5353   12.1032 S.O2    1  UNL1        0.0736
     16 O          63.0556   90.2889   13.5219 O.2     1  UNL1       -0.1499
     17 C          64.4959   91.5275   12.5778 C.ar    1  UNL1        0.1268
     18 C          65.0122   91.4577   13.9844 C.ar    1  UNL1        0.0316
     19 C          66.0323   92.4497   14.4591 C.ar    1  UNL1        0.0599
     20 CL         66.5486   92.3799   15.8657 Cl      1  UNL1       -0.0822
     21 C          66.5361   93.5115   13.5270 C.ar    1  UNL1        0.0229
     22 C          66.0198   93.5813   12.1204 C.ar    1  UNL1        0.0599
     23 CL         66.5236   94.6432   11.1884 Cl      1  UNL1       -0.0822
     24 C          64.9997   92.5893   11.6458 C.ar    1  UNL1        0.0316
@<TRIPOS>BOND
     1    14    15    2
     2    15    16    2
     3    15     1    1
     4     1     3    1
     5     3     4   ar
     6     4     5   ar
     7     5     6   ar
     8     6     9    1
     9     9    10   ar
    10    10    11   ar
    11    11    12   ar
    12    12    13   ar
    13     6     7   ar
    14     7     8   ar
    15    15    17    1
    16    17    18   ar
    17    18    19   ar
    18    19    20    1
    19    19    21   ar
    20    21    22   ar
    21    22    23    1
    22    22    24   ar
    23     8     3   ar
    24    24    17   ar
    25    13     9   ar
    26     1     2    1
