@<TRIPOS>MOLECULE
*****
 39 42 0 0 0
SMALL
GASTEIGER

@<TRIPOS>ATOM
      1 C          63.9347   90.0812   13.7598 C.2     1  UNL1        0.2522
      2 O          63.2240   90.7811   14.8801 O.2     1  UNL1       -0.2699
      3 N          64.7763   90.8672   12.7984 N.am    1  UNL1       -0.2981
      4 H          65.2427   90.4078   12.0631 H       1  UNL1        0.1498
      5 C          63.9238   83.2212   14.1946 C.ar    1  UNL1        0.1414
      6 C          64.5673   83.7901   15.4244 C.ar    1  UNL1        0.0371
      7 C          64.6981   85.2759   15.5833 C.ar    1  UNL1        0.0062
      8 C          64.1855   86.1928   14.5126 C.ar    1  UNL1        0.0352
      9 C          64.3164   87.6786   14.6716 C.ar    1  UNL1        0.0141
     10 C          63.8038   88.5954   13.6008 C.ar    1  UNL1        0.1293
     11 C          63.1603   88.0265   12.3710 C.ar    1  UNL1        0.3502
     12 O          62.6477   88.9434   11.3003 O.2     1  UNL1       -0.2443
     13 O          63.0295   86.5407   12.2120 O.2     1  UNL1       -0.4208
     14 C          63.5421   85.6238   13.2829 C.ar    1  UNL1        0.1517
     15 C          63.4112   84.1380   13.1239 C.ar    1  UNL1        0.0744
     16 O          63.7930   81.7354   14.0357 O.3     1  UNL1       -0.4791
     17 C          62.5365   81.1502   13.4621 C.3     1  UNL1        0.1659
     18 C          60.2170   80.2157   14.1668 C.3     1  UNL1        0.0038
     19 C          61.2327   81.3194   14.1842 C.3     1  UNL1        0.0435
     20 C          62.5839   80.3958   12.1665 C.3     1  UNL1        0.0435
     21 C          63.1295   81.0548   10.9344 C.3     1  UNL1        0.0038
     22 C          64.9071   92.3530   12.9574 C.3     1  UNL1        0.1229
     23 C          65.5348   93.1714   11.8683 C.3     1  UNL1        0.1477
     24 O          64.7372   92.4200   10.8440 O.3     1  UNL1       -0.3790
     25 H          64.1826   91.7590   11.2872 H       1  UNL1        0.2108
     26 C          66.1625   93.9899   10.7792 C.ar    1  UNL1        0.0328
     27 C          65.6598   95.3746   10.4971 C.ar    1  UNL1        0.0026
     28 C          66.2875   96.1930    9.4080 C.ar    1  UNL1        0.0295
     29 C          67.4180   95.6267    8.6010 C.ar    1  UNL1        0.1424
     30 F          68.0457   96.4451    7.5119 F       1  UNL1       -0.2041
     31 C          67.9207   94.2419    8.8831 C.ar    1  UNL1        0.0590
     32 C          67.2930   93.4235    9.9721 C.ar    1  UNL1        0.1406
     33 F          67.7957   92.0386   10.2542 F       1  UNL1       -0.2043
     34 C          66.3324   93.9228   12.8926 C.3     1  UNL1        0.1403
     35 N          67.1159   93.1743   13.9298 N.ar    1  UNL1       -0.3050
     36 C          67.1225   93.4559   15.4031 C.ar    1  UNL1        0.0981
     37 C          68.0411   92.4685   16.0598 C.ar    1  UNL1        0.1193
     38 N          68.6023   91.5766   14.9922 N.ar    1  UNL1       -0.2223
     39 C          68.0305   92.0128   13.6758 C.ar    1  UNL1        0.1787
@<TRIPOS>BOND
     1    18    19    1
     2    19    17    1
     3    17    20    1
     4    20    21    1
     5    17    16    1
     6    16     5    1
     7     5     6   ar
     8     6     7   ar
     9     7     8   ar
    10     8     9   ar
    11     9    10   ar
    12    10     1    1
    13     1     2    2
    14     1     3   am
    15     3    22    1
    16    22    23    1
    17    23    24    1
    18    23    34    1
    19    34    35    1
    20    35    36   ar
    21    36    37   ar
    22    37    38   ar
    23    38    39   ar
    24    23    26    1
    25    26    27   ar
    26    27    28   ar
    27    28    29   ar
    28    29    30    1
    29    29    31   ar
    30    31    32   ar
    31    32    33    1
    32    10    11   ar
    33    11    12    2
    34    11    13   ar
    35    13    14   ar
    36    14    15   ar
    37    15     5   ar
    38    14     8   ar
    39    39    35   ar
    40    32    26   ar
    41     3     4    1
    42    24    25    1
@<TRIPOS>MOLECULE
*****
 39 42 0 0 0
SMALL
GASTEIGER

@<TRIPOS>ATOM
      1 C          63.7119   88.5197   15.0885 C.2     1  UNL1        0.2522
      2 O          63.1039   88.8492   16.4195 O.2     1  UNL1       -0.2699
      3 N          63.9594   87.0893   14.7105 N.am    1  UNL1       -0.2981
      4 H          64.3584   86.8729   13.8369 H       1  UNL1        0.1498
      5 C          66.1520   93.9674   11.6801 C.ar    1  UNL1        0.1414
      6 C          66.7891   93.9115   13.0369 C.ar    1  UNL1        0.0371
      7 C          66.4285   92.8107   13.9899 C.ar    1  UNL1        0.0062
      8 C          65.4308   91.7659   13.5862 C.ar    1  UNL1        0.0352
      9 C          65.0702   90.6652   14.5392 C.ar    1  UNL1        0.0141
     10 C          64.0725   89.6204   14.1355 C.ar    1  UNL1        0.1293
     11 C          63.4354   89.6764   12.7786 C.ar    1  UNL1        0.3502
     12 O          62.4377   88.6316   12.3748 O.2     1  UNL1       -0.2443
     13 O          63.7960   90.7771   11.8255 O.2     1  UNL1       -0.4208
     14 C          64.7937   91.8219   12.2294 C.ar    1  UNL1        0.1517
     15 C          65.1543   92.9227   11.2763 C.ar    1  UNL1        0.0744
     16 O          66.5126   95.0682   10.7270 O.3     1  UNL1       -0.4791
     17 C          67.3153   94.7626    9.4973 C.3     1  UNL1        0.1659
     18 C          68.2405   92.3586    9.1579 C.3     1  UNL1        0.0038
     19 C          68.4519   93.7862    9.5670 C.3     1  UNL1        0.0435
     20 C          66.9813   95.4333    8.1977 C.3     1  UNL1        0.0435
     21 C          67.4069   96.8508    7.9542 C.3     1  UNL1        0.0038
     22 C          63.5988   85.9885   15.6635 C.3     1  UNL1        0.1229
     23 C          63.3083   84.6117   15.1439 C.3     1  UNL1        0.1477
     24 O          62.5187   84.3106   16.3831 O.3     1  UNL1       -0.3790
     25 H          62.5256   85.0851   16.9671 H       1  UNL1        0.2108
     26 C          63.0179   83.2349   14.6242 C.ar    1  UNL1        0.0328
     27 C          61.6082   82.7228   14.6038 C.ar    1  UNL1        0.0026
     28 C          61.3178   81.3460   14.0841 C.ar    1  UNL1        0.0295
     29 C          62.4372   80.4813   13.5848 C.ar    1  UNL1        0.1424
     30 F          62.1468   79.1044   13.0651 F       1  UNL1       -0.2041
     31 C          63.8469   80.9934   13.6052 C.ar    1  UNL1        0.0590
     32 C          64.1373   82.3701   14.1249 C.ar    1  UNL1        0.1406
     33 F          65.5470   82.8823   14.1453 F       1  UNL1       -0.2043
     34 C          64.0980   84.9129   13.9047 C.3     1  UNL1        0.1403
     35 N          63.4385   84.8415   12.5593 N.ar    1  UNL1       -0.3050
     36 C          63.9686   84.1222   11.3545 C.ar    1  UNL1        0.0981
     37 C          62.9909   84.3131   10.2331 C.ar    1  UNL1        0.1193
     38 N          61.8564   85.1505   10.7448 N.ar    1  UNL1       -0.2223
     39 C          62.1330   85.4771   12.1825 C.ar    1  UNL1        0.1787
@<TRIPOS>BOND
     1    18    19    1
     2    19    17    1
     3    17    20    1
     4    20    21    1
     5    17    16    1
     6    16     5    1
     7     5     6   ar
     8     6     7   ar
     9     7     8   ar
    10     8     9   ar
    11     9    10   ar
    12    10     1    1
    13     1     2    2
    14     1     3   am
    15     3    22    1
    16    22    23    1
    17    23    24    1
    18    23    34    1
    19    34    35    1
    20    35    36   ar
    21    36    37   ar
    22    37    38   ar
    23    38    39   ar
    24    23    26    1
    25    26    27   ar
    26    27    28   ar
    27    28    29   ar
    28    29    30    1
    29    29    31   ar
    30    31    32   ar
    31    32    33    1
    32    10    11   ar
    33    11    12    2
    34    11    13   ar
    35    13    14   ar
    36    14    15   ar
    37    15     5   ar
    38    14     8   ar
    39    39    35   ar
    40    32    26   ar
    41     3     4    1
    42    24    25    1
@<TRIPOS>MOLECULE
*****
 39 42 0 0 0
SMALL
GASTEIGER

@<TRIPOS>ATOM
      1 C          64.2878   89.7082   15.0741 C.2     1  UNL1        0.2522
      2 O          63.2641   90.7193   15.4979 O.2     1  UNL1       -0.2699
      3 N          65.5996   90.1620   14.5055 N.am    1  UNL1       -0.2981
      4 H          66.2715   89.4984   14.2274 H       1  UNL1        0.1498
      5 C          63.4307   82.9105   14.5203 C.ar    1  UNL1        0.1414
      6 C          64.0138   83.4376   13.2427 C.ar    1  UNL1        0.0371
      7 C          64.3019   84.9025   13.0980 C.ar    1  UNL1        0.0062
      8 C          64.0068   85.8404   14.2308 C.ar    1  UNL1        0.0352
      9 C          64.2949   87.3053   14.0861 C.ar    1  UNL1        0.0141
     10 C          63.9998   88.2432   15.2188 C.ar    1  UNL1        0.1293
     11 C          63.4166   87.7162   16.4964 C.ar    1  UNL1        0.3502
     12 O          63.1215   88.6541   17.6292 O.2     1  UNL1       -0.2443
     13 O          63.1285   86.2512   16.6412 O.2     1  UNL1       -0.4208
     14 C          63.4237   85.3133   15.5083 C.ar    1  UNL1        0.1517
     15 C          63.1356   83.8484   15.6530 C.ar    1  UNL1        0.0744
     16 O          63.1427   81.4455   14.6650 O.3     1  UNL1       -0.4791
     17 C          62.0707   80.8062   13.8331 C.3     1  UNL1        0.1659
     18 C          59.6617   79.9063   14.2026 C.3     1  UNL1        0.0038
     19 C          60.6261   81.0541   14.1516 C.3     1  UNL1        0.0435
     20 C          62.4435   79.9188   12.6824 C.3     1  UNL1        0.0435
     21 C          62.8476   80.5224   11.3701 C.3     1  UNL1        0.0038
     22 C          65.8877   91.6269   14.3608 C.3     1  UNL1        0.1229
     23 C          66.3540   92.1731   13.0439 C.3     1  UNL1        0.1477
     24 O          67.7645   91.7949   13.3865 O.3     1  UNL1       -0.3790
     25 H          67.7842   91.3804   14.2633 H       1  UNL1        0.2108
     26 C          66.8203   92.7193   11.7269 C.ar    1  UNL1        0.0328
     27 C          67.5063   91.8194   10.7423 C.ar    1  UNL1        0.0026
     28 C          67.9726   92.3656    9.4255 C.ar    1  UNL1        0.0295
     29 C          67.7528   93.8117    9.0932 C.ar    1  UNL1        0.1424
     30 F          68.2191   94.3579    7.7762 F       1  UNL1       -0.2041
     31 C          67.0668   94.7116   10.0778 C.ar    1  UNL1        0.0590
     32 C          66.6006   94.1654   11.3947 C.ar    1  UNL1        0.1406
     33 F          65.9145   95.0654   12.3794 F       1  UNL1       -0.2043
     34 C          64.9435   92.5513   12.7013 C.3     1  UNL1        0.1403
     35 N          64.1336   91.6788   11.7888 N.ar    1  UNL1       -0.3050
     36 C          63.4183   90.4193   12.1786 C.ar    1  UNL1        0.0981
     37 C          62.7394   89.8746   10.9569 C.ar    1  UNL1        0.1193
     38 N          63.0352   90.7975    9.8120 N.ar    1  UNL1       -0.2223
     39 C          63.8969   91.9125   10.3261 C.ar    1  UNL1        0.1787
@<TRIPOS>BOND
     1    18    19    1
     2    19    17    1
     3    17    20    1
     4    20    21    1
     5    17    16    1
     6    16     5    1
     7     5     6   ar
     8     6     7   ar
     9     7     8   ar
    10     8     9   ar
    11     9    10   ar
    12    10     1    1
    13     1     2    2
    14     1     3   am
    15     3    22    1
    16    22    23    1
    17    23    24    1
    18    23    34    1
    19    34    35    1
    20    35    36   ar
    21    36    37   ar
    22    37    38   ar
    23    38    39   ar
    24    23    26    1
    25    26    27   ar
    26    27    28   ar
    27    28    29   ar
    28    29    30    1
    29    29    31   ar
    30    31    32   ar
    31    32    33    1
    32    10    11   ar
    33    11    12    2
    34    11    13   ar
    35    13    14   ar
    36    14    15   ar
    37    15     5   ar
    38    14     8   ar
    39    39    35   ar
    40    32    26   ar
    41     3     4    1
    42    24    25    1
@<TRIPOS>MOLECULE
*****
 39 42 0 0 0
SMALL
GASTEIGER

@<TRIPOS>ATOM
      1 C          59.4899   89.5482    6.9521 C.2     1  UNL1        0.2522
      2 O          58.6291   88.3226    6.8688 O.2     1  UNL1       -0.2699
      3 N          60.2328   89.8584    8.2178 N.am    1  UNL1       -0.2981
      4 H          60.7977   90.6628    8.2725 H       1  UNL1        0.1498
      5 C          61.3004   93.4510    1.5912 C.ar    1  UNL1        0.1414
      6 C          62.5216   92.7766    2.1422 C.ar    1  UNL1        0.0371
      7 C          62.4038   91.8611    3.3246 C.ar    1  UNL1        0.0062
      8 C          61.0647   91.6201    3.9560 C.ar    1  UNL1        0.0352
      9 C          60.9468   90.7046    5.1383 C.ar    1  UNL1        0.0141
     10 C          59.6077   90.4636    5.7697 C.ar    1  UNL1        0.1293
     11 C          58.3864   91.1381    5.2188 C.ar    1  UNL1        0.3502
     12 O          57.0473   90.8971    5.8502 O.2     1  UNL1       -0.2443
     13 O          58.5043   92.0536    4.0364 O.2     1  UNL1       -0.4208
     14 C          59.8434   92.2946    3.4050 C.ar    1  UNL1        0.1517
     15 C          59.9613   93.2101    2.2226 C.ar    1  UNL1        0.0744
     16 O          61.4183   94.3665    0.4088 O.3     1  UNL1       -0.4791
     17 C          61.5830   93.7955   -0.9684 C.3     1  UNL1        0.1659
     18 C          64.0181   94.4977   -1.5406 C.3     1  UNL1        0.0038
     19 C          62.9503   93.4461   -1.4768 C.3     1  UNL1        0.0435
     20 C          60.3805   93.5737   -1.8372 C.3     1  UNL1        0.0435
     21 C          59.2779   92.6679   -1.3749 C.3     1  UNL1        0.0038
     22 C          60.1149   88.9429    9.4002 C.3     1  UNL1        0.1229
     23 C          60.9630   87.7083    9.4803 C.3     1  UNL1        0.1477
     24 O          59.7258   86.8625    9.5423 O.3     1  UNL1       -0.3790
     25 H          58.9421   87.4329    9.5068 H       1  UNL1        0.2108
     26 C          61.8112   86.4737    9.5604 C.ar    1  UNL1        0.0328
     27 C          62.5773   86.0107    8.3568 C.ar    1  UNL1        0.0026
     28 C          63.4255   84.7761    8.4370 C.ar    1  UNL1        0.0295
     29 C          63.5074   84.0045    9.7207 C.ar    1  UNL1        0.1424
     30 F          64.3556   82.7699    9.8008 F       1  UNL1       -0.2041
     31 C          62.7413   84.4675   10.9243 C.ar    1  UNL1        0.0590
     32 C          61.8932   85.7021   10.8441 C.ar    1  UNL1        0.1406
     33 F          61.1270   86.1651   12.0477 F       1  UNL1       -0.2043
     34 C          62.2002   88.5541    9.4183 C.3     1  UNL1        0.1403
     35 N          62.6243   89.3516   10.6158 N.ar    1  UNL1       -0.3050
     36 C          62.8206   88.8200   12.0047 C.ar    1  UNL1        0.0981
     37 C          63.2443   89.9606   12.8820 C.ar    1  UNL1        0.1193
     38 N          63.3098   91.1971   12.0354 N.ar    1  UNL1       -0.2223
     39 C          62.9267   90.8208   10.6348 C.ar    1  UNL1        0.1787
@<TRIPOS>BOND
     1    18    19    1
     2    19    17    1
     3    17    20    1
     4    20    21    1
     5    17    16    1
     6    16     5    1
     7     5     6   ar
     8     6     7   ar
     9     7     8   ar
    10     8     9   ar
    11     9    10   ar
    12    10     1    1
    13     1     2    2
    14     1     3   am
    15     3    22    1
    16    22    23    1
    17    23    24    1
    18    23    34    1
    19    34    35    1
    20    35    36   ar
    21    36    37   ar
    22    37    38   ar
    23    38    39   ar
    24    23    26    1
    25    26    27   ar
    26    27    28   ar
    27    28    29   ar
    28    29    30    1
    29    29    31   ar
    30    31    32   ar
    31    32    33    1
    32    10    11   ar
    33    11    12    2
    34    11    13   ar
    35    13    14   ar
    36    14    15   ar
    37    15     5   ar
    38    14     8   ar
    39    39    35   ar
    40    32    26   ar
    41     3     4    1
    42    24    25    1
@<TRIPOS>MOLECULE
*****
 39 42 0 0 0
SMALL
GASTEIGER

@<TRIPOS>ATOM
      1 C          64.0136   89.8219   15.0508 C.2     1  UNL1        0.2522
      2 O          63.4130   90.6932   16.1138 O.2     1  UNL1       -0.2699
      3 N          64.7689   90.4406   13.9120 N.am    1  UNL1       -0.2981
      4 H          65.1631   89.8687   13.2143 H       1  UNL1        0.1498
      5 C          63.6780   83.0159   14.1477 C.ar    1  UNL1        0.1414
      6 C          64.1156   83.6603   12.8658 C.ar    1  UNL1        0.0371
      7 C          64.2703   85.1504   12.7901 C.ar    1  UNL1        0.0062
      8 C          63.9873   85.9960   13.9962 C.ar    1  UNL1        0.0352
      9 C          64.1419   87.4861   13.9204 C.ar    1  UNL1        0.0141
     10 C          63.8589   88.3318   15.1265 C.ar    1  UNL1        0.1293
     11 C          63.4213   87.6874   16.4085 C.ar    1  UNL1        0.3502
     12 O          63.1383   88.5330   17.6146 O.2     1  UNL1       -0.2443
     13 O          63.2666   86.1973   16.4842 O.2     1  UNL1       -0.4208
     14 C          63.5496   85.3516   15.2780 C.ar    1  UNL1        0.1517
     15 C          63.3950   83.8615   15.3538 C.ar    1  UNL1        0.0744
     16 O          63.5234   81.5258   14.2234 O.3     1  UNL1       -0.4791
     17 C          62.6596   80.8098   13.2278 C.3     1  UNL1        0.1659
     18 C          62.8641   79.7661   10.8573 C.3     1  UNL1        0.0038
     19 C          62.9228   80.9635   11.7591 C.3     1  UNL1        0.0435
     20 C          61.5327   79.9402   13.7008 C.3     1  UNL1        0.0435
     21 C          60.2624   80.5634   14.1987 C.3     1  UNL1        0.0038
     22 C          64.9236   91.9307   13.8363 C.3     1  UNL1        0.1229
     23 C          65.5452   92.5595   12.6247 C.3     1  UNL1        0.1477
     24 O          64.8145   91.5884   11.7456 O.3     1  UNL1       -0.3790
     25 H          64.2779   90.9956   12.2948 H       1  UNL1        0.2108
     26 C          66.1670   93.1885   11.4131 C.ar    1  UNL1        0.0328
     27 C          65.5631   94.4252   10.8166 C.ar    1  UNL1        0.0026
     28 C          66.1848   95.0541    9.6051 C.ar    1  UNL1        0.0295
     29 C          67.4104   94.4463    8.9899 C.ar    1  UNL1        0.1424
     30 F          68.0322   95.0752    7.7783 F       1  UNL1       -0.2041
     31 C          68.0143   93.2095    9.5864 C.ar    1  UNL1        0.0590
     32 C          67.3926   92.5806   10.7979 C.ar    1  UNL1        0.1406
     33 F          67.9964   91.3438   11.3944 F       1  UNL1       -0.2043
     34 C          66.2760   93.5307   13.5037 C.3     1  UNL1        0.1403
     35 N          67.1487   93.0268   14.6148 N.ar    1  UNL1       -0.3050
     36 C          68.6034   92.6782   14.5043 C.ar    1  UNL1        0.0981
     37 C          69.0737   92.2189   15.8526 C.ar    1  UNL1        0.1193
     38 N          67.9097   92.2837   16.7964 N.ar    1  UNL1       -0.2223
     39 C          66.7199   92.7830   16.0314 C.ar    1  UNL1        0.1787
@<TRIPOS>BOND
     1    18    19    1
     2    19    17    1
     3    17    20    1
     4    20    21    1
     5    17    16    1
     6    16     5    1
     7     5     6   ar
     8     6     7   ar
     9     7     8   ar
    10     8     9   ar
    11     9    10   ar
    12    10     1    1
    13     1     2    2
    14     1     3   am
    15     3    22    1
    16    22    23    1
    17    23    24    1
    18    23    34    1
    19    34    35    1
    20    35    36   ar
    21    36    37   ar
    22    37    38   ar
    23    38    39   ar
    24    23    26    1
    25    26    27   ar
    26    27    28   ar
    27    28    29   ar
    28    29    30    1
    29    29    31   ar
    30    31    32   ar
    31    32    33    1
    32    10    11   ar
    33    11    12    2
    34    11    13   ar
    35    13    14   ar
    36    14    15   ar
    37    15     5   ar
    38    14     8   ar
    39    39    35   ar
    40    32    26   ar
    41     3     4    1
    42    24    25    1
@<TRIPOS>MOLECULE
*****
 39 42 0 0 0
SMALL
GASTEIGER

@<TRIPOS>ATOM
      1 C          63.3815   89.3911   15.5137 C.2     1  UNL1        0.2522
      2 O          62.1301   89.6495   16.2993 O.2     1  UNL1       -0.2699
      3 N          63.9326   87.9993   15.4171 N.am    1  UNL1       -0.2981
      4 H          64.7539   87.8297   14.9015 H       1  UNL1        0.1498
      5 C          66.2376   93.9726   11.2590 C.ar    1  UNL1        0.1414
      6 C          65.5918   92.8871   10.4499 C.ar    1  UNL1        0.0371
      7 C          64.8915   91.7537   11.1390 C.ar    1  UNL1        0.0062
      8 C          64.8368   91.7058   12.6372 C.ar    1  UNL1        0.0352
      9 C          64.1365   90.5724   13.3263 C.ar    1  UNL1        0.0141
     10 C          64.0818   90.5245   14.8246 C.ar    1  UNL1        0.1293
     11 C          64.7276   91.6101   15.6337 C.ar    1  UNL1        0.3502
     12 O          64.6730   91.5622   17.1319 O.2     1  UNL1       -0.2443
     13 O          65.4280   92.7435   14.9446 O.2     1  UNL1       -0.4208
     14 C          65.4826   92.7913   13.4463 C.ar    1  UNL1        0.1517
     15 C          66.1829   93.9247   12.7572 C.ar    1  UNL1        0.0744
     16 O          66.9379   95.1060   10.5699 O.3     1  UNL1       -0.4791
     17 C          67.7188   94.8528    9.3145 C.3     1  UNL1        0.1659
     18 C          68.5004   92.4382    8.7584 C.3     1  UNL1        0.0038
     19 C          68.7938   93.8068    9.2981 C.3     1  UNL1        0.0435
     20 C          67.4248   95.6456    8.0755 C.3     1  UNL1        0.0435
     21 C          66.2234   96.5423    8.0264 C.3     1  UNL1        0.0038
     22 C          63.2322   86.8659   16.1063 C.3     1  UNL1        0.1229
     23 C          63.2181   85.5023   15.4816 C.3     1  UNL1        0.1477
     24 O          62.5045   84.9589   16.6839 O.3     1  UNL1       -0.3790
     25 H          62.3593   85.6732   17.3239 H       1  UNL1        0.2108
     26 C          63.2040   84.1385   14.8569 C.ar    1  UNL1        0.0328
     27 C          61.9301   83.3480   14.8105 C.ar    1  UNL1        0.0026
     28 C          61.9161   81.9844   14.1858 C.ar    1  UNL1        0.0295
     29 C          63.1759   81.4113   13.6076 C.ar    1  UNL1        0.1424
     30 F          63.1619   80.0476   12.9829 F       1  UNL1       -0.2041
     31 C          64.4498   82.2018   13.6540 C.ar    1  UNL1        0.0590
     32 C          64.4639   83.5655   14.2787 C.ar    1  UNL1        0.1406
     33 F          65.7378   84.3561   14.3251 F       1  UNL1       -0.2043
     34 C          63.9317   86.0456   14.2794 C.3     1  UNL1        0.1403
     35 N          63.1874   86.2463   12.9926 N.ar    1  UNL1       -0.3050
     36 C          62.9726   87.5558   12.2933 C.ar    1  UNL1        0.0981
     37 C          62.1797   87.2916   11.0477 C.ar    1  UNL1        0.1193
     38 N          61.9046   85.8187   10.9771 N.ar    1  UNL1       -0.2223
     39 C          62.5274   85.1726   12.1791 C.ar    1  UNL1        0.1787
@<TRIPOS>BOND
     1    18    19    1
     2    19    17    1
     3    17    20    1
     4    20    21    1
     5    17    16    1
     6    16     5    1
     7     5     6   ar
     8     6     7   ar
     9     7     8   ar
    10     8     9   ar
    11     9    10   ar
    12    10     1    1
    13     1     2    2
    14     1     3   am
    15     3    22    1
    16    22    23    1
    17    23    24    1
    18    23    34    1
    19    34    35    1
    20    35    36   ar
    21    36    37   ar
    22    37    38   ar
    23    38    39   ar
    24    23    26    1
    25    26    27   ar
    26    27    28   ar
    27    28    29   ar
    28    29    30    1
    29    29    31   ar
    30    31    32   ar
    31    32    33    1
    32    10    11   ar
    33    11    12    2
    34    11    13   ar
    35    13    14   ar
    36    14    15   ar
    37    15     5   ar
    38    14     8   ar
    39    39    35   ar
    40    32    26   ar
    41     3     4    1
    42    24    25    1
@<TRIPOS>MOLECULE
*****
 39 42 0 0 0
SMALL
GASTEIGER

@<TRIPOS>ATOM
      1 C          59.2983   90.0863    6.3138 C.2     1  UNL1        0.2522
      2 O          57.8792   89.6016    6.3466 O.2     1  UNL1       -0.2699
      3 N          60.2494   89.6967    7.4064 N.am    1  UNL1       -0.2981
      4 H          61.1808   90.0148    7.3848 H       1  UNL1        0.1498
      5 C          62.5781   93.4659    1.3066 C.ar    1  UNL1        0.1414
      6 C          63.5172   92.4740    1.9263 C.ar    1  UNL1        0.0371
      7 C          63.0491   91.5997    3.0517 C.ar    1  UNL1        0.0062
      8 C          61.6418   91.7173    3.5573 C.ar    1  UNL1        0.0352
      9 C          61.1737   90.8430    4.6827 C.ar    1  UNL1        0.0141
     10 C          59.7664   90.9606    5.1884 C.ar    1  UNL1        0.1293
     11 C          58.8272   91.9525    4.5686 C.ar    1  UNL1        0.3502
     12 O          57.4199   92.0701    5.0743 O.2     1  UNL1       -0.2443
     13 O          59.2953   92.8268    3.4432 O.2     1  UNL1       -0.4208
     14 C          60.7027   92.7092    2.9376 C.ar    1  UNL1        0.1517
     15 C          61.1708   93.5834    1.8122 C.ar    1  UNL1        0.0744
     16 O          63.0462   94.3401    0.1812 O.3     1  UNL1       -0.4791
     17 C          64.0804   95.3970    0.4328 C.3     1  UNL1        0.1659
     18 C          65.0280   95.6087    2.8426 C.3     1  UNL1        0.0038
     19 C          64.1229   96.1053    1.7543 C.3     1  UNL1        0.0435
     20 C          65.0723   95.7456   -0.6372 C.3     1  UNL1        0.0435
     21 C          66.0582   96.8537   -0.4137 C.3     1  UNL1        0.0038
     22 C          59.7813   88.8224    8.5317 C.3     1  UNL1        0.1229
     23 C          60.6425   87.6918    9.0113 C.3     1  UNL1        0.1477
     24 O          60.5855   87.0700    7.6474 O.3     1  UNL1       -0.3790
     25 H          60.0481   87.6253    7.0611 H       1  UNL1        0.2108
     26 C          61.5037   86.5611    9.4908 C.ar    1  UNL1        0.0328
     27 C          62.4708   85.9041    8.5511 C.ar    1  UNL1        0.0026
     28 C          63.3319   84.7735    9.0307 C.ar    1  UNL1        0.0295
     29 C          63.2260   84.2998   10.4500 C.ar    1  UNL1        0.1424
     30 F          64.0872   83.1692   10.9296 F       1  UNL1       -0.2041
     31 C          62.2589   84.9568   11.3897 C.ar    1  UNL1        0.0590
     32 C          61.3978   86.0874   10.9101 C.ar    1  UNL1        0.1406
     33 F          60.4306   86.7445   11.8499 F       1  UNL1       -0.2043
     34 C          60.6994   88.3136   10.3751 C.3     1  UNL1        0.1403
     35 N          61.7704   89.3124   10.6998 N.ar    1  UNL1       -0.3050
     36 C          62.3492   90.3231    9.7547 C.ar    1  UNL1        0.0981
     37 C          63.3871   91.1113   10.4974 C.ar    1  UNL1        0.1193
     38 N          63.4496   90.5877   11.9017 N.ar    1  UNL1       -0.2223
     39 C          62.4504   89.4759   12.0268 C.ar    1  UNL1        0.1787
@<TRIPOS>BOND
     1    18    19    1
     2    19    17    1
     3    17    20    1
     4    20    21    1
     5    17    16    1
     6    16     5    1
     7     5     6   ar
     8     6     7   ar
     9     7     8   ar
    10     8     9   ar
    11     9    10   ar
    12    10     1    1
    13     1     2    2
    14     1     3   am
    15     3    22    1
    16    22    23    1
    17    23    24    1
    18    23    34    1
    19    34    35    1
    20    35    36   ar
    21    36    37   ar
    22    37    38   ar
    23    38    39   ar
    24    23    26    1
    25    26    27   ar
    26    27    28   ar
    27    28    29   ar
    28    29    30    1
    29    29    31   ar
    30    31    32   ar
    31    32    33    1
    32    10    11   ar
    33    11    12    2
    34    11    13   ar
    35    13    14   ar
    36    14    15   ar
    37    15     5   ar
    38    14     8   ar
    39    39    35   ar
    40    32    26   ar
    41     3     4    1
    42    24    25    1
