@<TRIPOS>MOLECULE
*****
 42 46 0 0 0
SMALL
GASTEIGER

@<TRIPOS>ATOM
      1 C          62.3347   85.0868    9.8885 C.ar    1  UNL1        0.0611
      2 C          61.2998   84.8144    8.8374 C.ar    1  UNL1        0.1037
      3 N          60.5056   86.0703    8.6324 N.ar    1  UNL1       -0.2269
      4 C          61.0496   87.1189    9.5568 C.ar    1  UNL1        0.1407
      5 N          60.6617   88.5486    9.7920 N.ar    1  UNL1       -0.3374
      6 C          61.4042   89.3705   10.8034 C.ar    1  UNL1        0.0735
      7 C          62.5346   88.7627   11.5797 C.ar    1  UNL1        0.0186
      8 C          62.9226   87.3330   11.3446 C.ar    1  UNL1        0.0047
      9 C          62.1801   86.5111   10.3331 C.ar    1  UNL1        0.0386
     10 H          59.9197   88.9475    9.2825 H       1  UNL1        0.1674
     11 C          63.2771   89.5847   12.5912 C.ar    1  UNL1        0.0208
     12 C          63.9280   88.9186   13.7670 C.ar    1  UNL1        0.0064
     13 C          64.6706   89.7406   14.7785 C.ar    1  UNL1        0.0577
     14 C          64.7621   91.2287   14.6141 C.ar    1  UNL1        0.2249
     15 N          64.1112   91.8949   13.4383 N.ar    1  UNL1       -0.2101
     16 C          63.3687   91.0729   12.4268 C.ar    1  UNL1        0.1021
     17 O          65.5046   92.0507   15.6255 O.3     1  UNL1       -0.4587
     18 C          66.8471   92.6263   15.2845 C.3     1  UNL1        0.2244
     19 C          66.9476   93.7857   14.3381 C.3     1  UNL1        0.1201
     20 N          66.8411   93.5582   12.8593 N.3     1  UNL1       -0.2696
     21 C          66.2342   94.5017   11.8635 C.3     1  UNL1        0.0722
     22 C          66.3408   93.8739   10.5054 C.3     1  UNL1        0.0188
     23 C          67.0136   92.5423   10.6618 C.3     1  UNL1        0.0188
     24 C          67.3228   92.3473   12.1166 C.3     1  UNL1        0.0722
     25 C          63.3466   84.1071   10.4044 C.2     1  UNL1        0.2015
     26 O          64.7101   84.0399    9.7831 O.2     1  UNL1       -0.2864
     27 C          62.3190   82.8541   14.0272 C.ar    1  UNL1        0.0920
     28 C          62.2913   81.3692   13.8163 C.ar    1  UNL1        0.0204
     29 C          62.6154   80.7970   12.4682 C.ar    1  UNL1        0.0312
     30 C          62.9672   81.7096   11.3309 C.ar    1  UNL1        0.1454
     31 F          63.2912   81.1373    9.9827 F       1  UNL1       -0.2040
     32 C          62.9948   83.1944   11.5418 C.ar    1  UNL1        0.0951
     33 C          62.6707   83.7666   12.8899 C.ar    1  UNL1        0.1598
     34 F          62.6984   85.2515   13.1007 F       1  UNL1       -0.2026
     35 N          61.9949   83.4263   15.3754 N.pl3   1  UNL1       -0.2166
     36 H          61.2887   83.0181   15.9266 H       1  UNL1        0.1734
     37 S          62.7468   84.6205   15.8837 S.O2    1  UNL1        0.0540
     38 O          64.0447   83.9272   15.5926 O.2     1  UNL1       -0.1545
     39 O          61.4489   85.3139   16.1747 O.2     1  UNL1       -0.1545
     40 C          63.4987   85.8148   16.3920 C.3     1  UNL1        0.1724
     41 C          63.0113   88.1973   17.3066 C.3     1  UNL1        0.0019
     42 C          62.8779   86.7079   17.4249 C.3     1  UNL1        0.0273
@<TRIPOS>BOND
     1    41    42    1
     2    42    40    1
     3    40    37    1
     4    37    38    2
     5    37    39    2
     6    37    35    1
     7    35    27    1
     8    27    28   ar
     9    28    29   ar
    10    29    30   ar
    11    30    31    1
    12    30    32   ar
    13    32    25    1
    14    25    26    2
    15    25     1    1
    16     1     2   ar
    17     2     3   ar
    18     3     4   ar
    19     4     5   ar
    20     5     6   ar
    21     6     7   ar
    22     7    11    1
    23    11    12   ar
    24    12    13   ar
    25    13    14   ar
    26    14    17    1
    27    17    18    1
    28    18    19    1
    29    19    20    1
    30    20    21    1
    31    21    22    1
    32    22    23    1
    33    23    24    1
    34    14    15   ar
    35    15    16   ar
    36     7     8   ar
    37     8     9   ar
    38    32    33   ar
    39    33    34    1
    40    33    27   ar
    41     9     1   ar
    42     9     4    1
    43    16    11   ar
    44    24    20    1
    45    35    36    1
    46     5    10    1
@<TRIPOS>MOLECULE
*****
 42 46 0 0 0
SMALL
GASTEIGER

@<TRIPOS>ATOM
      1 C          61.5202   86.0944    8.8970 C.ar    1  UNL1        0.0611
      2 C          60.2121   85.7745    8.2362 C.ar    1  UNL1        0.1037
      3 N          59.3166   86.9695    8.3783 N.ar    1  UNL1       -0.2269
      4 C          60.0712   88.0279    9.1269 C.ar    1  UNL1        0.1407
      5 N          59.6942   89.4142    9.5581 N.ar    1  UNL1       -0.3374
      6 C          60.6791   90.2597   10.3098 C.ar    1  UNL1        0.0735
      7 C          62.0410   89.7188   10.6304 C.ar    1  UNL1        0.0186
      8 C          62.4180   88.3325   10.1992 C.ar    1  UNL1        0.0047
      9 C          61.4331   87.4870    9.4475 C.ar    1  UNL1        0.0386
     10 H          58.8004   89.7692    9.3477 H       1  UNL1        0.1674
     11 C          63.0259   90.5644   11.3822 C.ar    1  UNL1        0.0208
     12 C          63.9347   91.4975   10.6385 C.ar    1  UNL1        0.0064
     13 C          64.9196   92.3431   11.3903 C.ar    1  UNL1        0.0577
     14 C          64.9956   92.2554   12.8858 C.ar    1  UNL1        0.2249
     15 N          64.0866   91.3221   13.6295 N.ar    1  UNL1       -0.2101
     16 C          63.1018   90.4767   12.8777 C.ar    1  UNL1        0.1021
     17 O          65.9804   93.1009   13.6376 O.3     1  UNL1       -0.4587
     18 C          66.9071   94.0148   12.8921 C.3     1  UNL1        0.2244
     19 C          66.3610   95.2118   12.1716 C.3     1  UNL1        0.1201
     20 N          66.7925   95.5016   10.7646 N.3     1  UNL1       -0.2696
     21 C          67.2453   94.4890    9.7550 C.3     1  UNL1        0.0722
     22 C          67.5796   95.2165    8.4865 C.3     1  UNL1        0.0188
     23 C          67.3334   96.6789    8.7122 C.3     1  UNL1        0.0188
     24 C          66.8469   96.8551   10.1201 C.3     1  UNL1        0.0722
     25 C          62.7070   85.1819    8.9908 C.2     1  UNL1        0.2015
     26 O          63.5579   84.9312    7.7813 O.2     1  UNL1       -0.2864
     27 C          62.6992   84.2995   12.8602 C.ar    1  UNL1        0.0920
     28 C          63.7146   83.1961   12.9013 C.ar    1  UNL1        0.0204
     29 C          64.3941   82.7547   11.6390 C.ar    1  UNL1        0.0312
     30 C          64.0582   83.4166   10.3355 C.ar    1  UNL1        0.1454
     31 F          64.7377   82.9752    9.0732 F       1  UNL1       -0.2040
     32 C          63.0429   84.5199   10.2944 C.ar    1  UNL1        0.0951
     33 C          62.3634   84.9613   11.5567 C.ar    1  UNL1        0.1598
     34 F          61.3480   86.0647   11.5155 F       1  UNL1       -0.2026
     35 N          62.0197   84.7409   14.1225 N.pl3   1  UNL1       -0.2166
     36 H          61.0366   84.7550   14.1733 H       1  UNL1        0.1734
     37 S          62.8381   85.1607   15.3074 S.O2    1  UNL1        0.0540
     38 O          62.1029   84.1737   16.1649 O.2     1  UNL1       -0.1545
     39 O          63.5732   86.1477   14.4499 O.2     1  UNL1       -0.1545
     40 C          63.6565   85.5806   16.4922 C.3     1  UNL1        0.1724
     41 C          62.8982   87.9296   17.3033 C.3     1  UNL1        0.0019
     42 C          63.0520   86.4578   17.5483 C.3     1  UNL1        0.0273
@<TRIPOS>BOND
     1    41    42    1
     2    42    40    1
     3    40    37    1
     4    37    38    2
     5    37    39    2
     6    37    35    1
     7    35    27    1
     8    27    28   ar
     9    28    29   ar
    10    29    30   ar
    11    30    31    1
    12    30    32   ar
    13    32    25    1
    14    25    26    2
    15    25     1    1
    16     1     2   ar
    17     2     3   ar
    18     3     4   ar
    19     4     5   ar
    20     5     6   ar
    21     6     7   ar
    22     7    11    1
    23    11    12   ar
    24    12    13   ar
    25    13    14   ar
    26    14    17    1
    27    17    18    1
    28    18    19    1
    29    19    20    1
    30    20    21    1
    31    21    22    1
    32    22    23    1
    33    23    24    1
    34    14    15   ar
    35    15    16   ar
    36     7     8   ar
    37     8     9   ar
    38    32    33   ar
    39    33    34    1
    40    33    27   ar
    41     9     1   ar
    42     9     4    1
    43    16    11   ar
    44    24    20    1
    45    35    36    1
    46     5    10    1
@<TRIPOS>MOLECULE
*****
 42 46 0 0 0
SMALL
GASTEIGER

@<TRIPOS>ATOM
      1 C          64.0836   88.9918   14.0665 C.ar    1  UNL1        0.0611
      2 C          64.7149   88.0060   15.0044 C.ar    1  UNL1        0.1037
      3 N          64.3815   86.6262   14.5197 N.ar    1  UNL1       -0.2269
      4 C          63.5441   86.7592   13.2823 C.ar    1  UNL1        0.1407
      5 N          62.9255   85.7380   12.3744 N.ar    1  UNL1       -0.3374
      6 C          62.1228   86.1788   11.1864 C.ar    1  UNL1        0.0735
      7 C          61.9387   87.6409   10.9064 C.ar    1  UNL1        0.0186
      8 C          62.5573   88.6621   11.8143 C.ar    1  UNL1        0.0047
      9 C          63.3600   88.2213   13.0022 C.ar    1  UNL1        0.0386
     10 H          63.0464   84.7784   12.5582 H       1  UNL1        0.1674
     11 C          61.1359   88.0817    9.7183 C.ar    1  UNL1        0.0208
     12 C          60.5781   87.0622    8.7700 C.ar    1  UNL1        0.0064
     13 C          59.7754   87.5030    7.5820 C.ar    1  UNL1        0.0577
     14 C          59.5304   88.9633    7.3424 C.ar    1  UNL1        0.2249
     15 N          60.0883   89.9829    8.2908 N.ar    1  UNL1       -0.2101
     16 C          60.8910   89.5420    9.4787 C.ar    1  UNL1        0.1021
     17 O          58.7277   89.4041    6.1544 O.3     1  UNL1       -0.4587
     18 C          59.0680   90.6856    5.4531 C.3     1  UNL1        0.2244
     19 C          60.4894   90.9781    5.0730 C.3     1  UNL1        0.1201
     20 N          60.7847   91.8908    3.9199 N.3     1  UNL1       -0.2696
     21 C          59.8323   92.8748    3.3080 C.3     1  UNL1        0.0722
     22 C          60.5433   93.5719    2.1862 C.3     1  UNL1        0.0188
     23 C          61.9353   93.0187    2.1048 C.3     1  UNL1        0.0188
     24 C          62.0844   91.9797    3.1763 C.3     1  UNL1        0.0722
     25 C          64.1621   90.4859   14.1741 C.2     1  UNL1        0.2015
     26 O          63.1531   91.2328   14.9951 O.2     1  UNL1       -0.2864
     27 C          66.0435   92.6753   11.4506 C.ar    1  UNL1        0.0920
     28 C          67.4245   92.7276   12.0337 C.ar    1  UNL1        0.0204
     29 C          67.7181   92.0327   13.3302 C.ar    1  UNL1        0.0312
     30 C          66.6307   91.2855   14.0437 C.ar    1  UNL1        0.1454
     31 F          66.9242   90.5906   15.3402 F       1  UNL1       -0.2040
     32 C          65.2496   91.2332   13.4606 C.ar    1  UNL1        0.0951
     33 C          64.9560   91.9281   12.1641 C.ar    1  UNL1        0.1598
     34 F          63.5749   91.8757   11.5811 F       1  UNL1       -0.2026
     35 N          65.7499   93.3702   10.1541 N.pl3   1  UNL1       -0.2166
     36 H          65.0567   93.0157    9.5516 H       1  UNL1        0.1734
     37 S          66.5126   94.6051    9.7757 S.O2    1  UNL1        0.0540
     38 O          67.4083   93.7828    8.8974 O.2     1  UNL1       -0.1545
     39 O          65.6168   95.4275   10.6539 O.2     1  UNL1       -0.1545
     40 C          67.2751   95.8401    9.3973 C.3     1  UNL1        0.1724
     41 C          65.6832   96.7585    7.5608 C.3     1  UNL1        0.0019
     42 C          67.0708   96.4640    8.0485 C.3     1  UNL1        0.0273
@<TRIPOS>BOND
     1    41    42    1
     2    42    40    1
     3    40    37    1
     4    37    38    2
     5    37    39    2
     6    37    35    1
     7    35    27    1
     8    27    28   ar
     9    28    29   ar
    10    29    30   ar
    11    30    31    1
    12    30    32   ar
    13    32    25    1
    14    25    26    2
    15    25     1    1
    16     1     2   ar
    17     2     3   ar
    18     3     4   ar
    19     4     5   ar
    20     5     6   ar
    21     6     7   ar
    22     7    11    1
    23    11    12   ar
    24    12    13   ar
    25    13    14   ar
    26    14    17    1
    27    17    18    1
    28    18    19    1
    29    19    20    1
    30    20    21    1
    31    21    22    1
    32    22    23    1
    33    23    24    1
    34    14    15   ar
    35    15    16   ar
    36     7     8   ar
    37     8     9   ar
    38    32    33   ar
    39    33    34    1
    40    33    27   ar
    41     9     1   ar
    42     9     4    1
    43    16    11   ar
    44    24    20    1
    45    35    36    1
    46     5    10    1
@<TRIPOS>MOLECULE
*****
 42 46 0 0 0
SMALL
GASTEIGER

@<TRIPOS>ATOM
      1 C          61.6107   86.1569    8.9456 C.ar    1  UNL1        0.0611
      2 C          60.2814   85.7534    8.3798 C.ar    1  UNL1        0.1037
      3 N          59.3697   86.9428    8.4449 N.ar    1  UNL1       -0.2269
      4 C          60.1355   88.0813    9.0510 C.ar    1  UNL1        0.1407
      5 N          59.7506   89.4975    9.3611 N.ar    1  UNL1       -0.3374
      6 C          60.7507   90.4280    9.9806 C.ar    1  UNL1        0.0735
      7 C          62.1357   89.9423   10.2901 C.ar    1  UNL1        0.0186
      8 C          62.5206   88.5261    9.9801 C.ar    1  UNL1        0.0047
      9 C          61.5205   87.5956    9.3605 C.ar    1  UNL1        0.0386
     10 H          58.8415   89.8163    9.1580 H       1  UNL1        0.1674
     11 C          63.1359   90.8729   10.9097 C.ar    1  UNL1        0.0208
     12 C          64.1449   91.5715   10.0474 C.ar    1  UNL1        0.0064
     13 C          65.1451   92.5021   10.6670 C.ar    1  UNL1        0.0577
     14 C          65.1360   92.7340   12.1489 C.ar    1  UNL1        0.2249
     15 N          64.1269   92.0353   13.0113 N.ar    1  UNL1       -0.2101
     16 C          63.1268   91.1048   12.3917 C.ar    1  UNL1        0.1021
     17 O          66.1361   93.6645   12.7685 O.3     1  UNL1       -0.4587
     18 C          67.2000   93.1246   13.6777 C.3     1  UNL1        0.2244
     19 C          66.8801   92.8264   15.1125 C.3     1  UNL1        0.1201
     20 N          65.7568   91.8920   15.4519 N.3     1  UNL1       -0.2696
     21 C          64.6178   92.1842   16.3831 C.3     1  UNL1        0.0722
     22 C          63.7324   90.9741   16.4264 C.3     1  UNL1        0.0188
     23 C          64.3243   89.9340   15.5220 C.3     1  UNL1        0.0188
     24 C          65.5755   90.5014   14.9197 C.3     1  UNL1        0.0722
     25 C          62.8182   85.2763    9.0741 C.2     1  UNL1        0.2015
     26 O          63.7943   85.1717    7.9401 O.2     1  UNL1       -0.2864
     27 C          62.6378   84.1669   12.8803 C.ar    1  UNL1        0.0920
     28 C          63.5124   82.9483   12.8621 C.ar    1  UNL1        0.0204
     29 C          64.1555   82.5058   11.5813 C.ar    1  UNL1        0.0312
     30 C          63.9242   83.2817   10.3186 C.ar    1  UNL1        0.1454
     31 F          64.5673   82.8392    9.0378 F       1  UNL1       -0.2040
     32 C          63.0496   84.5003   10.3369 C.ar    1  UNL1        0.0951
     33 C          62.4065   84.9428   11.6177 C.ar    1  UNL1        0.1598
     34 F          61.5319   86.1614   11.6358 F       1  UNL1       -0.2026
     35 N          61.9947   84.6094   14.1611 N.pl3   1  UNL1       -0.2166
     36 H          61.0160   84.5685   14.2604 H       1  UNL1        0.1734
     37 S          62.8426   85.1142   15.2908 S.O2    1  UNL1        0.0540
     38 O          63.5887   85.9981   14.3358 O.2     1  UNL1       -0.1545
     39 O          62.0965   84.2304   16.2458 O.2     1  UNL1       -0.1545
     40 C          63.6904   85.6190   16.4205 C.3     1  UNL1        0.1724
     41 C          62.7664   87.6778   17.7081 C.3     1  UNL1        0.0019
     42 C          63.0432   86.2052   17.6402 C.3     1  UNL1        0.0273
@<TRIPOS>BOND
     1    41    42    1
     2    42    40    1
     3    40    37    1
     4    37    38    2
     5    37    39    2
     6    37    35    1
     7    35    27    1
     8    27    28   ar
     9    28    29   ar
    10    29    30   ar
    11    30    31    1
    12    30    32   ar
    13    32    25    1
    14    25    26    2
    15    25     1    1
    16     1     2   ar
    17     2     3   ar
    18     3     4   ar
    19     4     5   ar
    20     5     6   ar
    21     6     7   ar
    22     7    11    1
    23    11    12   ar
    24    12    13   ar
    25    13    14   ar
    26    14    17    1
    27    17    18    1
    28    18    19    1
    29    19    20    1
    30    20    21    1
    31    21    22    1
    32    22    23    1
    33    23    24    1
    34    14    15   ar
    35    15    16   ar
    36     7     8   ar
    37     8     9   ar
    38    32    33   ar
    39    33    34    1
    40    33    27   ar
    41     9     1   ar
    42     9     4    1
    43    16    11   ar
    44    24    20    1
    45    35    36    1
    46     5    10    1
@<TRIPOS>MOLECULE
*****
 42 46 0 0 0
SMALL
GASTEIGER

@<TRIPOS>ATOM
      1 C          60.7858   88.7279   10.9328 C.ar    1  UNL1        0.0611
      2 C          60.8709   87.3509   11.5215 C.ar    1  UNL1        0.1037
      3 N          60.5695   86.3625   10.4343 N.ar    1  UNL1       -0.2269
      4 C          60.2981   87.1286    9.1735 C.ar    1  UNL1        0.1407
      5 N          59.9466   86.6839    7.7848 N.ar    1  UNL1       -0.3374
      6 C          59.7287   87.7011    6.7042 C.ar    1  UNL1        0.0735
      7 C          59.8624   89.1630    7.0123 C.ar    1  UNL1        0.0186
      8 C          60.2140   89.6077    8.4010 C.ar    1  UNL1        0.0047
      9 C          60.4318   88.5905    9.4816 C.ar    1  UNL1        0.0386
     10 H          59.8588   85.7244    7.5826 H       1  UNL1        0.1674
     11 C          59.6446   90.1802    5.9316 C.ar    1  UNL1        0.0208
     12 C          58.2587   90.6678    5.6289 C.ar    1  UNL1        0.0064
     13 C          58.0409   91.6850    4.5482 C.ar    1  UNL1        0.0577
     14 C          59.2089   92.2146    3.7702 C.ar    1  UNL1        0.2249
     15 N          60.5948   91.7270    4.0729 N.ar    1  UNL1       -0.2101
     16 C          60.8126   90.7098    5.1536 C.ar    1  UNL1        0.1021
     17 O          58.9911   93.2318    2.6895 O.3     1  UNL1       -0.4587
     18 C          59.6939   93.0885    1.3721 C.3     1  UNL1        0.2244
     19 C          60.6156   94.1703    0.8922 C.3     1  UNL1        0.1201
     20 N          62.0940   93.9242    0.8326 N.3     1  UNL1       -0.2696
     21 C          63.0557   94.5600   -0.1270 C.3     1  UNL1        0.0722
     22 C          64.4264   94.0278    0.1694 C.3     1  UNL1        0.0188
     23 C          64.3119   93.0630    1.3123 C.3     1  UNL1        0.0188
     24 C          62.8704   92.9990    1.7221 C.3     1  UNL1        0.0722
     25 C          61.0146   90.0161   11.6663 C.2     1  UNL1        0.2015
     26 O          59.8484   90.7872   12.2096 O.2     1  UNL1       -0.2864
     27 C          64.4843   90.9036   13.3762 C.ar    1  UNL1        0.0920
     28 C          65.2000   91.5675   12.2374 C.ar    1  UNL1        0.0204
     29 C          64.5205   91.7144   10.9082 C.ar    1  UNL1        0.0312
     30 C          63.1254   91.1973   10.7178 C.ar    1  UNL1        0.1454
     31 F          62.4459   91.3441    9.3886 F       1  UNL1       -0.2040
     32 C          62.4098   90.5333   11.8567 C.ar    1  UNL1        0.0951
     33 C          63.0893   90.3864   13.1858 C.ar    1  UNL1        0.1598
     34 F          62.3736   89.7224   14.3247 F       1  UNL1       -0.2026
     35 N          65.1638   90.7567   14.7054 N.pl3   1  UNL1       -0.2166
     36 H          65.0742   89.9186   15.2142 H       1  UNL1        0.1734
     37 S          65.9798   91.8868   15.2595 S.O2    1  UNL1        0.0540
     38 O          67.2067   91.3199   14.6089 O.2     1  UNL1       -0.1545
     39 O          64.7529   92.4538   15.9100 O.2     1  UNL1       -0.1545
     40 C          66.7957   93.0170   15.8135 C.3     1  UNL1        0.1724
     41 C          69.1827   94.0234   16.0130 C.3     1  UNL1        0.0019
     42 C          68.2665   92.8363   16.0467 C.3     1  UNL1        0.0273
@<TRIPOS>BOND
     1    41    42    1
     2    42    40    1
     3    40    37    1
     4    37    38    2
     5    37    39    2
     6    37    35    1
     7    35    27    1
     8    27    28   ar
     9    28    29   ar
    10    29    30   ar
    11    30    31    1
    12    30    32   ar
    13    32    25    1
    14    25    26    2
    15    25     1    1
    16     1     2   ar
    17     2     3   ar
    18     3     4   ar
    19     4     5   ar
    20     5     6   ar
    21     6     7   ar
    22     7    11    1
    23    11    12   ar
    24    12    13   ar
    25    13    14   ar
    26    14    17    1
    27    17    18    1
    28    18    19    1
    29    19    20    1
    30    20    21    1
    31    21    22    1
    32    22    23    1
    33    23    24    1
    34    14    15   ar
    35    15    16   ar
    36     7     8   ar
    37     8     9   ar
    38    32    33   ar
    39    33    34    1
    40    33    27   ar
    41     9     1   ar
    42     9     4    1
    43    16    11   ar
    44    24    20    1
    45    35    36    1
    46     5    10    1
@<TRIPOS>MOLECULE
*****
 42 46 0 0 0
SMALL
GASTEIGER

@<TRIPOS>ATOM
      1 C          60.7646   88.7731   10.9119 C.ar    1  UNL1        0.0611
      2 C          60.8541   87.3985   11.5054 C.ar    1  UNL1        0.1037
      3 N          60.5638   86.4051   10.4196 N.ar    1  UNL1       -0.2269
      4 C          60.2950   87.1658    9.1551 C.ar    1  UNL1        0.1407
      5 N          59.9532   86.7149    7.7659 N.ar    1  UNL1       -0.3374
      6 C          59.7356   87.7275    6.6810 C.ar    1  UNL1        0.0735
      7 C          59.8597   89.1911    6.9852 C.ar    1  UNL1        0.0186
      8 C          60.2014   89.6420    8.3744 C.ar    1  UNL1        0.0047
      9 C          60.4191   88.6294    9.4593 C.ar    1  UNL1        0.0386
     10 H          59.8717   85.7543    7.5662 H       1  UNL1        0.1674
     11 C          59.6420   90.2038    5.9002 C.ar    1  UNL1        0.0208
     12 C          58.2524   90.6617    5.5695 C.ar    1  UNL1        0.0064
     13 C          58.0348   91.6744    4.4844 C.ar    1  UNL1        0.0577
     14 C          59.2067   92.2291    3.7302 C.ar    1  UNL1        0.2249
     15 N          60.5963   91.7712    4.0611 N.ar    1  UNL1       -0.2101
     16 C          60.8139   90.7585    5.1460 C.ar    1  UNL1        0.1021
     17 O          58.9891   93.2417    2.6453 O.3     1  UNL1       -0.4587
     18 C          59.8569   93.2283    1.4219 C.3     1  UNL1        0.2244
     19 C          59.3501   92.6167    0.1495 C.3     1  UNL1        0.1201
     20 N          58.1790   93.2272   -0.5617 N.3     1  UNL1       -0.2696
     21 C          57.9195   94.6945   -0.7343 C.3     1  UNL1        0.0722
     22 C          56.6420   94.8518   -1.5045 C.3     1  UNL1        0.0188
     23 C          56.1119   93.4817   -1.8079 C.3     1  UNL1        0.0188
     24 C          57.0619   92.4777   -1.2253 C.3     1  UNL1        0.0722
     25 C          60.9825   90.0649   11.6426 C.2     1  UNL1        0.2015
     26 O          59.8066   90.8585   12.1298 O.2     1  UNL1       -0.2864
     27 C          64.3942   90.9099   13.4856 C.ar    1  UNL1        0.0920
     28 C          65.1638   91.5590   12.3736 C.ar    1  UNL1        0.0204
     29 C          64.5396   91.7100   11.0180 C.ar    1  UNL1        0.0312
     30 C          63.1459   91.2120   10.7743 C.ar    1  UNL1        0.1454
     31 F          62.5218   91.3630    9.4187 F       1  UNL1       -0.2040
     32 C          62.3763   90.5629   11.8863 C.ar    1  UNL1        0.0951
     33 C          63.0005   90.4119   13.2419 C.ar    1  UNL1        0.1598
     34 F          62.2308   89.7629   14.3538 F       1  UNL1       -0.2026
     35 N          65.0184   90.7589   14.8411 N.pl3   1  UNL1       -0.2166
     36 H          64.8531   89.9460   15.3714 H       1  UNL1        0.1734
     37 S          65.8943   91.8465   15.3888 S.O2    1  UNL1        0.0540
     38 O          64.7157   92.4340   16.1070 O.2     1  UNL1       -0.1545
     39 O          67.0728   91.2589   14.6707 O.2     1  UNL1       -0.1545
     40 C          66.7702   92.9340   15.9365 C.3     1  UNL1        0.1724
     41 C          69.1565   93.9599   15.8752 C.3     1  UNL1        0.0019
     42 C          68.2600   92.7598   15.9537 C.3     1  UNL1        0.0273
@<TRIPOS>BOND
     1    41    42    1
     2    42    40    1
     3    40    37    1
     4    37    38    2
     5    37    39    2
     6    37    35    1
     7    35    27    1
     8    27    28   ar
     9    28    29   ar
    10    29    30   ar
    11    30    31    1
    12    30    32   ar
    13    32    25    1
    14    25    26    2
    15    25     1    1
    16     1     2   ar
    17     2     3   ar
    18     3     4   ar
    19     4     5   ar
    20     5     6   ar
    21     6     7   ar
    22     7    11    1
    23    11    12   ar
    24    12    13   ar
    25    13    14   ar
    26    14    17    1
    27    17    18    1
    28    18    19    1
    29    19    20    1
    30    20    21    1
    31    21    22    1
    32    22    23    1
    33    23    24    1
    34    14    15   ar
    35    15    16   ar
    36     7     8   ar
    37     8     9   ar
    38    32    33   ar
    39    33    34    1
    40    33    27   ar
    41     9     1   ar
    42     9     4    1
    43    16    11   ar
    44    24    20    1
    45    35    36    1
    46     5    10    1
@<TRIPOS>MOLECULE
*****
 42 46 0 0 0
SMALL
GASTEIGER

@<TRIPOS>ATOM
      1 C          62.9155   90.2131   12.2353 C.ar    1  UNL1        0.0611
      2 C          62.3830   91.4349   11.5472 C.ar    1  UNL1        0.1037
      3 N          61.6848   90.9943   10.2948 N.ar    1  UNL1       -0.2269
      4 C          61.7858   89.5001   10.2090 C.ar    1  UNL1        0.1407
      5 N          61.2835   88.5169    9.1937 N.ar    1  UNL1       -0.3374
      6 C          61.5418   87.0508    9.3777 C.ar    1  UNL1        0.0735
      7 C          62.3024   86.5680   10.5770 C.ar    1  UNL1        0.0186
      8 C          62.8047   87.5513   11.5923 C.ar    1  UNL1        0.0047
      9 C          62.5464   89.0173   11.4083 C.ar    1  UNL1        0.0386
     10 H          60.7843   88.8338    8.4065 H       1  UNL1        0.1674
     11 C          62.5607   85.1019   10.7610 C.ar    1  UNL1        0.0208
     12 C          63.5734   84.4051    9.9014 C.ar    1  UNL1        0.0064
     13 C          63.8316   82.9389   10.0854 C.ar    1  UNL1        0.0577
     14 C          63.0772   82.1696   11.1290 C.ar    1  UNL1        0.2249
     15 N          62.0645   82.8665   11.9886 N.ar    1  UNL1       -0.2101
     16 C          61.8062   84.3326   11.8046 C.ar    1  UNL1        0.1021
     17 O          63.3354   80.7036   11.3130 O.3     1  UNL1       -0.4587
     18 C          62.9223   80.0231   12.5843 C.3     1  UNL1        0.2244
     19 C          63.5629   80.4098   13.8844 C.3     1  UNL1        0.1201
     20 N          63.4565   81.8206   14.3825 N.3     1  UNL1       -0.2696
     21 C          62.2338   82.4567   14.9745 C.3     1  UNL1        0.0722
     22 C          62.5757   83.8723   15.3340 C.3     1  UNL1        0.0188
     23 C          64.0097   84.1111   14.9641 C.3     1  UNL1        0.0188
     24 C          64.5540   82.8431   14.3760 C.3     1  UNL1        0.0722
     25 C          63.6824   90.1908   13.5242 C.2     1  UNL1        0.2015
     26 O          63.4563   89.0855   14.5126 O.2     1  UNL1       -0.2864
     27 C          66.3695   93.0647   13.0034 C.ar    1  UNL1        0.0920
     28 C          66.6618   93.4406   14.4259 C.ar    1  UNL1        0.0204
     29 C          65.9610   92.7332   15.5477 C.ar    1  UNL1        0.0312
     30 C          64.9679   91.6500   15.2472 C.ar    1  UNL1        0.1454
     31 F          64.2672   90.9427   16.3691 F       1  UNL1       -0.2040
     32 C          64.6756   91.2741   13.8248 C.ar    1  UNL1        0.0951
     33 C          65.3764   91.9815   12.7030 C.ar    1  UNL1        0.1598
     34 F          65.0840   91.6055   11.2805 F       1  UNL1       -0.2026
     35 N          67.0703   93.7720   11.8816 N.pl3   1  UNL1       -0.2166
     36 H          68.0320   93.6246   11.7312 H       1  UNL1        0.1734
     37 S          66.3058   94.7039   10.9888 S.O2    1  UNL1        0.0540
     38 O          66.0909   95.6352   12.1450 O.2     1  UNL1       -0.1545
     39 O          66.5207   93.7727    9.8327 O.2     1  UNL1       -0.1545
     40 C          65.5413   95.6358   10.0960 C.3     1  UNL1        0.1724
     41 C          67.2610   96.7019    8.4662 C.3     1  UNL1        0.0019
     42 C          66.2132   96.8512    9.5292 C.3     1  UNL1        0.0273
@<TRIPOS>BOND
     1    41    42    1
     2    42    40    1
     3    40    37    1
     4    37    38    2
     5    37    39    2
     6    37    35    1
     7    35    27    1
     8    27    28   ar
     9    28    29   ar
    10    29    30   ar
    11    30    31    1
    12    30    32   ar
    13    32    25    1
    14    25    26    2
    15    25     1    1
    16     1     2   ar
    17     2     3   ar
    18     3     4   ar
    19     4     5   ar
    20     5     6   ar
    21     6     7   ar
    22     7    11    1
    23    11    12   ar
    24    12    13   ar
    25    13    14   ar
    26    14    17    1
    27    17    18    1
    28    18    19    1
    29    19    20    1
    30    20    21    1
    31    21    22    1
    32    22    23    1
    33    23    24    1
    34    14    15   ar
    35    15    16   ar
    36     7     8   ar
    37     8     9   ar
    38    32    33   ar
    39    33    34    1
    40    33    27   ar
    41     9     1   ar
    42     9     4    1
    43    16    11   ar
    44    24    20    1
    45    35    36    1
    46     5    10    1
@<TRIPOS>MOLECULE
*****
 42 46 0 0 0
SMALL
GASTEIGER

@<TRIPOS>ATOM
      1 C          61.5404   86.6759   10.8944 C.ar    1  UNL1        0.0611
      2 C          60.3439   86.2047   10.1223 C.ar    1  UNL1        0.1037
      3 N          59.8333   87.3574    9.3096 N.ar    1  UNL1       -0.2269
      4 C          60.7143   88.5411    9.5795 C.ar    1  UNL1        0.1407
      5 N          60.6921   89.9480    9.0599 N.ar    1  UNL1       -0.3374
      6 C          61.7249   90.9337    9.5198 C.ar    1  UNL1        0.0735
      7 C          62.7800   90.5125   10.4992 C.ar    1  UNL1        0.0186
      8 C          62.8022   89.1056   11.0188 C.ar    1  UNL1        0.0047
      9 C          61.7694   88.1199   10.5590 C.ar    1  UNL1        0.0386
     10 H          59.9996   90.2245    8.4170 H       1  UNL1        0.1674
     11 C          63.8129   91.4983   10.9591 C.ar    1  UNL1        0.0208
     12 C          64.4732   92.4101    9.9679 C.ar    1  UNL1        0.0064
     13 C          65.5061   93.3959   10.4277 C.ar    1  UNL1        0.0577
     14 C          65.8787   93.4698   11.8789 C.ar    1  UNL1        0.2249
     15 N          65.2183   92.5580   12.8701 N.ar    1  UNL1       -0.2101
     16 C          64.1854   91.5722   12.4102 C.ar    1  UNL1        0.1021
     17 O          66.9115   94.4555   12.3388 O.3     1  UNL1       -0.4587
     18 C          66.5079   95.8581   12.6849 C.3     1  UNL1        0.2244
     19 C          65.7971   96.7057   11.6717 C.3     1  UNL1        0.1201
     20 N          66.1984   96.6436   10.2278 N.3     1  UNL1       -0.2696
     21 C          65.2925   96.8547    9.0511 C.3     1  UNL1        0.0722
     22 C          66.1103   96.7011    7.8030 C.3     1  UNL1        0.0188
     23 C          67.5217   96.3952    8.2084 C.3     1  UNL1        0.0188
     24 C          67.5762   96.3597    9.7070 C.3     1  UNL1        0.0722
     25 C          62.3636   85.8484   11.8366 C.2     1  UNL1        0.2015
     26 O          62.5799   86.3101   13.2472 O.2     1  UNL1       -0.2864
     27 C          63.7186   82.1182   11.8504 C.ar    1  UNL1        0.0920
     28 C          64.1843   81.9806   10.4312 C.ar    1  UNL1        0.0204
     29 C          64.0431   83.1322    9.4805 C.ar    1  UNL1        0.0312
     30 C          63.4362   84.4214    9.9489 C.ar    1  UNL1        0.1454
     31 F          63.2950   85.5730    8.9981 F       1  UNL1       -0.2040
     32 C          62.9705   84.5591   11.3681 C.ar    1  UNL1        0.0951
     33 C          63.1117   83.4075   12.3188 C.ar    1  UNL1        0.1598
     34 F          62.6460   83.5453   13.7380 F       1  UNL1       -0.2026
     35 N          63.8597   80.9667   12.8011 N.pl3   1  UNL1       -0.2166
     36 H          64.7532   80.6165   13.0210 H       1  UNL1        0.1734
     37 S          62.6396   80.3485   13.4169 S.O2    1  UNL1        0.0540
     38 O          62.9617   81.0132   14.7224 O.2     1  UNL1       -0.1545
     39 O          62.3175   79.6839   12.1114 O.2     1  UNL1       -0.1545
     40 C          61.4195   79.7304   14.0326 C.3     1  UNL1        0.1724
     41 C          58.8573   79.8431   14.4485 C.3     1  UNL1        0.0019
     42 C          60.1595   80.5329   14.1686 C.3     1  UNL1        0.0273
@<TRIPOS>BOND
     1    41    42    1
     2    42    40    1
     3    40    37    1
     4    37    38    2
     5    37    39    2
     6    37    35    1
     7    35    27    1
     8    27    28   ar
     9    28    29   ar
    10    29    30   ar
    11    30    31    1
    12    30    32   ar
    13    32    25    1
    14    25    26    2
    15    25     1    1
    16     1     2   ar
    17     2     3   ar
    18     3     4   ar
    19     4     5   ar
    20     5     6   ar
    21     6     7   ar
    22     7    11    1
    23    11    12   ar
    24    12    13   ar
    25    13    14   ar
    26    14    17    1
    27    17    18    1
    28    18    19    1
    29    19    20    1
    30    20    21    1
    31    21    22    1
    32    22    23    1
    33    23    24    1
    34    14    15   ar
    35    15    16   ar
    36     7     8   ar
    37     8     9   ar
    38    32    33   ar
    39    33    34    1
    40    33    27   ar
    41     9     1   ar
    42     9     4    1
    43    16    11   ar
    44    24    20    1
    45    35    36    1
    46     5    10    1
@<TRIPOS>MOLECULE
*****
 42 46 0 0 0
SMALL
GASTEIGER

@<TRIPOS>ATOM
      1 C          61.3823   86.2940    8.7916 C.ar    1  UNL1        0.0611
      2 C          60.1487   86.0508    7.9735 C.ar    1  UNL1        0.1037
      3 N          59.3762   87.3348    7.9070 N.ar    1  UNL1       -0.2269
      4 C          60.1322   88.3715    8.6840 C.ar    1  UNL1        0.1407
      5 N          59.8518   89.8182    8.9642 N.ar    1  UNL1       -0.3374
      6 C          60.8113   90.6215    9.7912 C.ar    1  UNL1        0.0735
      7 C          62.0512   89.9782   10.3379 C.ar    1  UNL1        0.0186
      8 C          62.3316   88.5316   10.0577 C.ar    1  UNL1        0.0047
      9 C          61.3721   87.7282    9.2307 C.ar    1  UNL1        0.0386
     10 H          59.0381   90.2404    8.6054 H       1  UNL1        0.1674
     11 C          63.0107   90.7817   11.1650 C.ar    1  UNL1        0.0208
     12 C          63.8652   91.8297   10.5158 C.ar    1  UNL1        0.0064
     13 C          64.8247   92.6331   11.3429 C.ar    1  UNL1        0.0577
     14 C          64.9297   92.3884   12.8190 C.ar    1  UNL1        0.2249
     15 N          64.0751   91.3403   13.4682 N.ar    1  UNL1       -0.2101
     16 C          63.1157   90.5370   12.6412 C.ar    1  UNL1        0.1021
     17 O          65.8891   93.1918   13.6461 O.3     1  UNL1       -0.4587
     18 C          67.3590   92.8994   13.5850 C.3     1  UNL1        0.2244
     19 C          67.9064   92.0322   12.4903 C.3     1  UNL1        0.1201
     20 N          67.9976   92.5607   11.0895 N.3     1  UNL1       -0.2696
     21 C          68.5341   91.8198    9.9008 C.3     1  UNL1        0.0722
     22 C          68.4363   92.7241    8.7080 C.3     1  UNL1        0.0188
     23 C          67.8394   94.0241    9.1597 C.3     1  UNL1        0.0188
     24 C          67.5682   93.9230   10.6315 C.3     1  UNL1        0.0722
     25 C          62.4403   85.2808    9.1140 C.2     1  UNL1        0.2015
     26 O          63.3187   84.7410    8.0247 O.2     1  UNL1       -0.2864
     27 C          63.4780   83.0238   12.2092 C.ar    1  UNL1        0.0920
     28 C          62.9791   83.8603   13.3499 C.ar    1  UNL1        0.0204
     29 C          62.3007   85.1704   13.0787 C.ar    1  UNL1        0.0312
     30 C          62.1211   85.6439   11.6668 C.ar    1  UNL1        0.1454
     31 F          61.4426   86.9539   11.3956 F       1  UNL1       -0.2040
     32 C          62.6199   84.8073   10.5261 C.ar    1  UNL1        0.0951
     33 C          63.2983   83.4973   10.7973 C.ar    1  UNL1        0.1598
     34 F          63.7972   82.6607    9.6564 F       1  UNL1       -0.2026
     35 N          64.1564   81.7137   12.4804 N.pl3   1  UNL1       -0.2166
     36 H          65.1140   81.6044   12.2794 H       1  UNL1        0.1734
     37 S          63.3759   80.5703   13.0577 S.O2    1  UNL1        0.0540
     38 O          63.9633   80.8516   14.4089 O.2     1  UNL1       -0.1545
     39 O          62.7885   80.2890   11.7065 O.2     1  UNL1       -0.1545
     40 C          62.5953   79.4269   13.6349 C.3     1  UNL1        0.1724
     41 C          60.5497   80.9462   14.1424 C.3     1  UNL1        0.0019
     42 C          61.1287   79.5823   13.9085 C.3     1  UNL1        0.0273
@<TRIPOS>BOND
     1    41    42    1
     2    42    40    1
     3    40    37    1
     4    37    38    2
     5    37    39    2
     6    37    35    1
     7    35    27    1
     8    27    28   ar
     9    28    29   ar
    10    29    30   ar
    11    30    31    1
    12    30    32   ar
    13    32    25    1
    14    25    26    2
    15    25     1    1
    16     1     2   ar
    17     2     3   ar
    18     3     4   ar
    19     4     5   ar
    20     5     6   ar
    21     6     7   ar
    22     7    11    1
    23    11    12   ar
    24    12    13   ar
    25    13    14   ar
    26    14    17    1
    27    17    18    1
    28    18    19    1
    29    19    20    1
    30    20    21    1
    31    21    22    1
    32    22    23    1
    33    23    24    1
    34    14    15   ar
    35    15    16   ar
    36     7     8   ar
    37     8     9   ar
    38    32    33   ar
    39    33    34    1
    40    33    27   ar
    41     9     1   ar
    42     9     4    1
    43    16    11   ar
    44    24    20    1
    45    35    36    1
    46     5    10    1
