@<TRIPOS>MOLECULE
*****
 31 34 0 0 0
SMALL
GASTEIGER

@<TRIPOS>ATOM
      1 C          63.2549   90.6498   12.3434 C.3     1  UNL1        0.0328
      2 C          63.5276   89.2882   12.9106 C.ar    1  UNL1        0.0002
      3 C          64.2900   89.1497   14.1950 C.ar    1  UNL1        0.0774
      4 N          64.5627   87.7881   14.7622 N.ar    1  UNL1       -0.2457
      5 C          64.0731   86.5650   14.0450 C.ar    1  UNL1        0.0814
      6 C          64.3458   85.2034   14.6122 C.ar    1  UNL1        0.0196
      7 C          63.8562   83.9804   13.8950 C.ar    1  UNL1        0.0082
      8 C          63.0939   84.1189   12.6106 C.ar    1  UNL1        0.0347
      9 BR         62.6043   82.8958   11.8935 Br      1  UNL1       -0.0490
     10 C          62.8211   85.4804   12.0435 C.ar    1  UNL1        0.0083
     11 C          63.3107   86.7035   12.7606 C.ar    1  UNL1        0.0222
     12 C          63.0380   88.0651   12.1934 C.ar    1  UNL1        0.0523
     13 C          64.7796   90.3728   14.9122 C.ar    1  UNL1        0.0173
     14 C          63.9667   90.9657   16.0246 C.ar    1  UNL1        0.0015
     15 C          64.4563   92.1888   16.7417 C.ar    1  UNL1        0.0000
     16 C          65.7589   92.8189   16.3465 C.ar    1  UNL1        0.0000
     17 C          66.5718   92.2260   15.2341 C.ar    1  UNL1        0.0000
     18 C          66.0822   91.0029   14.5169 C.ar    1  UNL1        0.0015
     19 C          62.2757   88.2036   10.9091 C.2     1  UNL1        0.2456
     20 O          62.9614   88.7287    9.6827 O.2     1  UNL1       -0.2702
     21 N          60.8274   87.8170   10.8511 N.am    1  UNL1       -0.3021
     22 H          60.3773   87.4724   11.6560 H       1  UNL1        0.1497
     23 C          60.0651   87.9555    9.5667 C.3     1  UNL1        0.0778
     24 C          59.7443   89.3182    9.0281 C.3     1  UNL1        0.0217
     25 C          59.6235   86.7312    8.8209 C.3     1  UNL1        0.0653
     26 C          60.6221   85.9252    8.0444 C.ar    1  UNL1        0.0607
     27 C          62.0372   85.8149    8.5299 C.ar    1  UNL1        0.0148
     28 C          63.0358   85.0088    7.7534 C.ar    1  UNL1        0.0028
     29 C          62.6195   84.3130    6.4914 C.ar    1  UNL1        0.0207
     30 C          61.2045   84.4233    6.0060 C.ar    1  UNL1        0.0984
     31 N          60.2058   85.2293    6.7825 N.ar    1  UNL1       -0.2481
@<TRIPOS>BOND
     1     1     2    1
     2     2     3   ar
     3     3    13    1
     4    13    14   ar
     5    14    15   ar
     6    15    16   ar
     7    16    17   ar
     8    17    18   ar
     9     3     4   ar
    10     4     5   ar
    11     5     6   ar
    12     6     7   ar
    13     7     8   ar
    14     8     9    1
    15     8    10   ar
    16    10    11   ar
    17    11    12   ar
    18    12    19    1
    19    19    20    2
    20    19    21   am
    21    21    23    1
    22    23    24    1
    23    23    25    1
    24    25    26    1
    25    26    27   ar
    26    27    28   ar
    27    28    29   ar
    28    29    30   ar
    29    30    31   ar
    30    12     2   ar
    31    31    26   ar
    32    18    13   ar
    33    11     5   ar
    34    21    22    1
@<TRIPOS>MOLECULE
*****
 31 34 0 0 0
SMALL
GASTEIGER

@<TRIPOS>ATOM
      1 C          62.3808   85.0698   11.6925 C.3     1  UNL1        0.0328
      2 C          62.6587   86.5430   11.6426 C.ar    1  UNL1        0.0002
      3 C          62.3170   87.3294   10.4118 C.ar    1  UNL1        0.0774
      4 N          62.5949   88.8026   10.3619 N.ar    1  UNL1       -0.2457
      5 C          63.2144   89.4894   11.5429 C.ar    1  UNL1        0.0814
      6 C          63.4922   90.9626   11.4930 C.ar    1  UNL1        0.0196
      7 C          64.1117   91.6493   12.6739 C.ar    1  UNL1        0.0082
      8 C          64.4534   90.8629   13.9047 C.ar    1  UNL1        0.0347
      9 BR         65.0729   91.5498   15.0856 Br      1  UNL1       -0.0490
     10 C          64.1755   89.3898   13.9546 C.ar    1  UNL1        0.0083
     11 C          63.5560   88.7030   12.7737 C.ar    1  UNL1        0.0222
     12 C          63.2781   87.2298   12.8235 C.ar    1  UNL1        0.0523
     13 C          61.6975   86.6426    9.2309 C.ar    1  UNL1        0.0173
     14 C          62.5229   85.7239    8.3796 C.ar    1  UNL1        0.0015
     15 C          61.9034   85.0372    7.1987 C.ar    1  UNL1        0.0000
     16 C          60.4585   85.2690    6.8692 C.ar    1  UNL1        0.0000
     17 C          59.6331   86.1877    7.7205 C.ar    1  UNL1        0.0000
     18 C          60.2527   86.8745    8.9014 C.ar    1  UNL1        0.0015
     19 C          63.6198   86.4433   14.0543 C.2     1  UNL1        0.2456
     20 O          65.0441   86.3544   14.5162 O.2     1  UNL1       -0.2702
     21 N          62.5370   85.7459   14.8233 N.am    1  UNL1       -0.3021
     22 H          61.6021   85.8043   14.5201 H       1  UNL1        0.1497
     23 C          62.8786   84.9595   16.0540 C.3     1  UNL1        0.0778
     24 C          62.9117   85.6370   17.3918 C.3     1  UNL1        0.0217
     25 C          63.1871   83.4954   15.9470 C.3     1  UNL1        0.0653
     26 C          63.1736   82.8221   14.6066 C.ar    1  UNL1        0.0607
     27 C          62.0111   81.9602   14.2119 C.ar    1  UNL1        0.0148
     28 C          61.9977   81.2870   12.8716 C.ar    1  UNL1        0.0028
     29 C          63.1467   81.4757   11.9259 C.ar    1  UNL1        0.0207
     30 C          64.3091   82.3376   12.3206 C.ar    1  UNL1        0.0984
     31 N          64.3226   83.0108   13.6610 N.ar    1  UNL1       -0.2481
@<TRIPOS>BOND
     1     1     2    1
     2     2     3   ar
     3     3    13    1
     4    13    14   ar
     5    14    15   ar
     6    15    16   ar
     7    16    17   ar
     8    17    18   ar
     9     3     4   ar
    10     4     5   ar
    11     5     6   ar
    12     6     7   ar
    13     7     8   ar
    14     8     9    1
    15     8    10   ar
    16    10    11   ar
    17    11    12   ar
    18    12    19    1
    19    19    20    2
    20    19    21   am
    21    21    23    1
    22    23    24    1
    23    23    25    1
    24    25    26    1
    25    26    27   ar
    26    27    28   ar
    27    28    29   ar
    28    29    30   ar
    29    30    31   ar
    30    12     2   ar
    31    31    26   ar
    32    18    13   ar
    33    11     5   ar
    34    21    22    1
@<TRIPOS>MOLECULE
*****
 31 34 0 0 0
SMALL
GASTEIGER

@<TRIPOS>ATOM
      1 C          63.8431   91.7880    9.6894 C.3     1  UNL1        0.0328
      2 C          64.1954   91.7689   11.1474 C.ar    1  UNL1        0.0002
      3 C          65.2682   92.6767   11.6718 C.ar    1  UNL1        0.0774
      4 N          65.6204   92.6576   13.1297 N.ar    1  UNL1       -0.2457
      5 C          64.8998   91.7306   14.0633 C.ar    1  UNL1        0.0814
      6 C          65.2520   91.7115   15.5212 C.ar    1  UNL1        0.0196
      7 C          64.5314   90.7846   16.4547 C.ar    1  UNL1        0.0082
      8 C          63.4586   89.8768   15.9304 C.ar    1  UNL1        0.0347
      9 BR         62.7380   88.9498   16.8640 Br      1  UNL1       -0.0490
     10 C          63.1064   89.8959   14.4725 C.ar    1  UNL1        0.0083
     11 C          63.8270   90.8228   13.5389 C.ar    1  UNL1        0.0222
     12 C          63.4748   90.8420   12.0809 C.ar    1  UNL1        0.0523
     13 C          65.9888   93.6036   10.7381 C.ar    1  UNL1        0.0173
     14 C          67.1644   93.1086    9.9490 C.ar    1  UNL1        0.0015
     15 C          67.8849   94.0355    9.0154 C.ar    1  UNL1        0.0000
     16 C          67.4298   95.4575    8.8710 C.ar    1  UNL1        0.0000
     17 C          66.2542   95.9525    9.6601 C.ar    1  UNL1        0.0000
     18 C          65.5337   95.0256   10.5937 C.ar    1  UNL1        0.0015
     19 C          62.4020   89.9341   11.5566 C.2     1  UNL1        0.2456
     20 O          60.9713   90.3847   11.5582 O.2     1  UNL1       -0.2702
     21 N          62.7599   88.5757   11.0306 N.am    1  UNL1       -0.3021
     22 H          63.6989   88.2800   11.0296 H       1  UNL1        0.1497
     23 C          61.6871   87.6679   10.5062 C.3     1  UNL1        0.0778
     24 C          60.9796   88.0036    9.2269 C.3     1  UNL1        0.0217
     25 C          61.3218   86.4243   11.2613 C.3     1  UNL1        0.0653
     26 C          62.3567   85.3678   11.5119 C.ar    1  UNL1        0.0607
     27 C          62.8482   84.5158   10.3794 C.ar    1  UNL1        0.0148
     28 C          63.8832   83.4593   10.6301 C.ar    1  UNL1        0.0028
     29 C          64.4265   83.2549   12.0133 C.ar    1  UNL1        0.0207
     30 C          63.9350   84.1069   13.1457 C.ar    1  UNL1        0.0984
     31 N          62.9001   85.1634   12.8950 N.ar    1  UNL1       -0.2481
@<TRIPOS>BOND
     1     1     2    1
     2     2     3   ar
     3     3    13    1
     4    13    14   ar
     5    14    15   ar
     6    15    16   ar
     7    16    17   ar
     8    17    18   ar
     9     3     4   ar
    10     4     5   ar
    11     5     6   ar
    12     6     7   ar
    13     7     8   ar
    14     8     9    1
    15     8    10   ar
    16    10    11   ar
    17    11    12   ar
    18    12    19    1
    19    19    20    2
    20    19    21   am
    21    21    23    1
    22    23    24    1
    23    23    25    1
    24    25    26    1
    25    26    27   ar
    26    27    28   ar
    27    28    29   ar
    28    29    30   ar
    29    30    31   ar
    30    12     2   ar
    31    31    26   ar
    32    18    13   ar
    33    11     5   ar
    34    21    22    1
@<TRIPOS>MOLECULE
*****
 31 34 0 0 0
SMALL
GASTEIGER

@<TRIPOS>ATOM
      1 C          61.8424   86.3537   11.7035 C.3     1  UNL1        0.0328
      2 C          62.4029   87.7393   11.5766 C.ar    1  UNL1        0.0002
      3 C          62.0698   88.5761   10.3771 C.ar    1  UNL1        0.0774
      4 N          62.6302   89.9616   10.2502 N.ar    1  UNL1       -0.2457
      5 C          63.5239   90.5104   11.3227 C.ar    1  UNL1        0.0814
      6 C          64.0843   91.8959   11.1958 C.ar    1  UNL1        0.0196
      7 C          64.9779   92.4446   12.2683 C.ar    1  UNL1        0.0082
      8 C          65.3110   91.6078   13.4678 C.ar    1  UNL1        0.0347
      9 BR         66.2047   92.1565   14.5404 Br      1  UNL1       -0.0490
     10 C          64.7506   90.2222   13.5948 C.ar    1  UNL1        0.0083
     11 C          63.8570   89.6735   12.5222 C.ar    1  UNL1        0.0222
     12 C          63.2965   88.2880   12.6491 C.ar    1  UNL1        0.0523
     13 C          61.1761   88.0273    9.3045 C.ar    1  UNL1        0.0173
     14 C          61.3516   86.6145    8.8323 C.ar    1  UNL1        0.0015
     15 C          60.4580   86.0658    7.7598 C.ar    1  UNL1        0.0000
     16 C          59.3889   86.9299    7.1595 C.ar    1  UNL1        0.0000
     17 C          59.2135   88.3428    7.6317 C.ar    1  UNL1        0.0000
     18 C          60.1071   88.8915    8.7042 C.ar    1  UNL1        0.0015
     19 C          63.6296   87.4511   13.8486 C.2     1  UNL1        0.2456
     20 O          63.9626   88.1105   15.1540 O.2     1  UNL1       -0.2702
     21 N          63.6297   85.9548   13.7426 N.am    1  UNL1       -0.3021
     22 H          63.4111   85.5220   12.8857 H       1  UNL1        0.1497
     23 C          63.9628   85.1180   14.9421 C.3     1  UNL1        0.0778
     24 C          63.8432   85.7001   16.3193 C.3     1  UNL1        0.0217
     25 C          64.4155   83.6990   14.7642 C.3     1  UNL1        0.0653
     26 C          64.0030   82.9272   13.5460 C.ar    1  UNL1        0.0607
     27 C          63.2127   81.6607   13.6925 C.ar    1  UNL1        0.0148
     28 C          62.8002   80.8889   12.4742 C.ar    1  UNL1        0.0028
     29 C          63.1781   81.3837   11.1094 C.ar    1  UNL1        0.0207
     30 C          63.9683   82.6501   10.9630 C.ar    1  UNL1        0.0984
     31 N          64.3808   83.4219   12.1812 N.ar    1  UNL1       -0.2481
@<TRIPOS>BOND
     1     1     2    1
     2     2     3   ar
     3     3    13    1
     4    13    14   ar
     5    14    15   ar
     6    15    16   ar
     7    16    17   ar
     8    17    18   ar
     9     3     4   ar
    10     4     5   ar
    11     5     6   ar
    12     6     7   ar
    13     7     8   ar
    14     8     9    1
    15     8    10   ar
    16    10    11   ar
    17    11    12   ar
    18    12    19    1
    19    19    20    2
    20    19    21   am
    21    21    23    1
    22    23    24    1
    23    23    25    1
    24    25    26    1
    25    26    27   ar
    26    27    28   ar
    27    28    29   ar
    28    29    30   ar
    29    30    31   ar
    30    12     2   ar
    31    31    26   ar
    32    18    13   ar
    33    11     5   ar
    34    21    22    1
@<TRIPOS>MOLECULE
*****
 31 34 0 0 0
SMALL
GASTEIGER

@<TRIPOS>ATOM
      1 C          61.8271   90.3920   10.7310 C.3     1  UNL1        0.0328
      2 C          62.1208   88.9901   11.1769 C.ar    1  UNL1        0.0002
      3 C          61.5332   87.8278   10.4327 C.ar    1  UNL1        0.0774
      4 N          61.8268   86.4261   10.8785 N.ar    1  UNL1       -0.2457
      5 C          62.7081   86.1865   12.0685 C.ar    1  UNL1        0.0814
      6 C          63.0017   84.7847   12.5143 C.ar    1  UNL1        0.0196
      7 C          63.8829   84.5453   13.7042 C.ar    1  UNL1        0.0082
      8 C          64.4706   85.7076   14.4484 C.ar    1  UNL1        0.0347
      9 BR         65.3519   85.4680   15.6384 Br      1  UNL1       -0.0490
     10 C          64.1770   87.1093   14.0026 C.ar    1  UNL1        0.0083
     11 C          63.2957   87.3488   12.8127 C.ar    1  UNL1        0.0222
     12 C          63.0020   88.7506   12.3668 C.ar    1  UNL1        0.0523
     13 C          60.6519   88.0674    9.2427 C.ar    1  UNL1        0.0173
     14 C          60.5360   89.4448    8.6604 C.ar    1  UNL1        0.0015
     15 C          59.6547   89.6843    7.4705 C.ar    1  UNL1        0.0000
     16 C          58.8894   88.5463    6.8629 C.ar    1  UNL1        0.0000
     17 C          59.0052   87.1689    7.4452 C.ar    1  UNL1        0.0000
     18 C          59.8865   86.9294    8.6351 C.ar    1  UNL1        0.0015
     19 C          63.5897   89.9129   13.1109 C.2     1  UNL1        0.2456
     20 O          62.9393   90.4032   14.3705 O.2     1  UNL1       -0.2702
     21 N          64.8278   90.5849   12.5954 N.am    1  UNL1       -0.3021
     22 H          65.2546   90.2631   11.7687 H       1  UNL1        0.1497
     23 C          65.4154   91.7472   13.3396 C.3     1  UNL1        0.0778
     24 C          65.8331   91.5873   14.7713 C.3     1  UNL1        0.0217
     25 C          65.5854   93.0695   12.6519 C.3     1  UNL1        0.0653
     26 C          66.4479   93.1735   11.4291 C.ar    1  UNL1        0.0607
     27 C          66.2456   94.3025   10.4624 C.ar    1  UNL1        0.0148
     28 C          67.1081   94.4065    9.2396 C.ar    1  UNL1        0.0028
     29 C          68.1730   93.3815    8.9835 C.ar    1  UNL1        0.0207
     30 C          68.3753   92.2525    9.9503 C.ar    1  UNL1        0.0984
     31 N          67.5127   92.1486   11.1730 N.ar    1  UNL1       -0.2481
@<TRIPOS>BOND
     1     1     2    1
     2     2     3   ar
     3     3    13    1
     4    13    14   ar
     5    14    15   ar
     6    15    16   ar
     7    16    17   ar
     8    17    18   ar
     9     3     4   ar
    10     4     5   ar
    11     5     6   ar
    12     6     7   ar
    13     7     8   ar
    14     8     9    1
    15     8    10   ar
    16    10    11   ar
    17    11    12   ar
    18    12    19    1
    19    19    20    2
    20    19    21   am
    21    21    23    1
    22    23    24    1
    23    23    25    1
    24    25    26    1
    25    26    27   ar
    26    27    28   ar
    27    28    29   ar
    28    29    30   ar
    29    30    31   ar
    30    12     2   ar
    31    31    26   ar
    32    18    13   ar
    33    11     5   ar
    34    21    22    1
@<TRIPOS>MOLECULE
*****
 31 34 0 0 0
SMALL
GASTEIGER

@<TRIPOS>ATOM
      1 C          62.1837   89.1768   11.4048 C.3     1  UNL1        0.0328
      2 C          62.2912   87.6851   11.5211 C.ar    1  UNL1        0.0002
      3 C          61.6073   86.8035   10.5185 C.ar    1  UNL1        0.0774
      4 N          61.7147   85.3119   10.6348 N.ar    1  UNL1       -0.2457
      5 C          62.5060   84.7019   11.7536 C.ar    1  UNL1        0.0814
      6 C          62.6134   83.2103   11.8699 C.ar    1  UNL1        0.0196
      7 C          63.4047   82.6003   12.9887 C.ar    1  UNL1        0.0082
      8 C          64.0886   83.4819   13.9913 C.ar    1  UNL1        0.0347
      9 BR         64.8799   82.8718   15.1101 Br      1  UNL1       -0.0490
     10 C          63.9812   84.9735   13.8750 C.ar    1  UNL1        0.0083
     11 C          63.1899   85.5835   12.7562 C.ar    1  UNL1        0.0222
     12 C          63.0824   87.0751   12.6399 C.ar    1  UNL1        0.0523
     13 C          60.8160   87.4136    9.3997 C.ar    1  UNL1        0.0173
     14 C          60.8127   88.9012    9.2076 C.ar    1  UNL1        0.0015
     15 C          60.0215   89.5112    8.0888 C.ar    1  UNL1        0.0000
     16 C          59.2335   88.6335    7.1621 C.ar    1  UNL1        0.0000
     17 C          59.2368   87.1459    7.3541 C.ar    1  UNL1        0.0000
     18 C          60.0281   86.5359    8.4729 C.ar    1  UNL1        0.0015
     19 C          63.7663   87.9568   13.6424 C.2     1  UNL1        0.2456
     20 O          64.7407   87.3671   14.6185 O.2     1  UNL1       -0.2702
     21 N          63.4757   89.4281   13.6689 N.am    1  UNL1       -0.3021
     22 H          62.8361   89.8152   13.0283 H       1  UNL1        0.1497
     23 C          64.1595   90.3098   14.6715 C.3     1  UNL1        0.0778
     24 C          63.5585   90.5051   16.0318 C.3     1  UNL1        0.0217
     25 C          65.4445   90.9960   14.3136 C.3     1  UNL1        0.0653
     26 C          65.4905   91.9432   13.1514 C.ar    1  UNL1        0.0607
     27 C          66.2764   93.2169   13.2525 C.ar    1  UNL1        0.0148
     28 C          66.3224   94.1640   12.0903 C.ar    1  UNL1        0.0028
     29 C          65.5825   93.8374   10.8269 C.ar    1  UNL1        0.0207
     30 C          64.7967   92.5638   10.7258 C.ar    1  UNL1        0.0984
     31 N          64.7507   91.6167   11.8881 N.ar    1  UNL1       -0.2481
@<TRIPOS>BOND
     1     1     2    1
     2     2     3   ar
     3     3    13    1
     4    13    14   ar
     5    14    15   ar
     6    15    16   ar
     7    16    17   ar
     8    17    18   ar
     9     3     4   ar
    10     4     5   ar
    11     5     6   ar
    12     6     7   ar
    13     7     8   ar
    14     8     9    1
    15     8    10   ar
    16    10    11   ar
    17    11    12   ar
    18    12    19    1
    19    19    20    2
    20    19    21   am
    21    21    23    1
    22    23    24    1
    23    23    25    1
    24    25    26    1
    25    26    27   ar
    26    27    28   ar
    27    28    29   ar
    28    29    30   ar
    29    30    31   ar
    30    12     2   ar
    31    31    26   ar
    32    18    13   ar
    33    11     5   ar
    34    21    22    1
@<TRIPOS>MOLECULE
*****
 31 34 0 0 0
SMALL
GASTEIGER

@<TRIPOS>ATOM
      1 C          62.2102   88.2490    9.7278 C.3     1  UNL1        0.0328
      2 C          62.4669   87.1223   10.6842 C.ar    1  UNL1        0.0002
      3 C          62.3572   85.7014   10.2160 C.ar    1  UNL1        0.0774
      4 N          62.6138   84.5747   11.1723 N.ar    1  UNL1       -0.2457
      5 C          62.9801   84.8688   12.5970 C.ar    1  UNL1        0.0814
      6 C          63.2367   83.7421   13.5533 C.ar    1  UNL1        0.0196
      7 C          63.6029   84.0362   14.9778 C.ar    1  UNL1        0.0082
      8 C          63.7126   85.4570   15.4460 C.ar    1  UNL1        0.0347
      9 BR         64.0788   85.7511   16.8706 Br      1  UNL1       -0.0490
     10 C          63.4559   86.5838   14.4897 C.ar    1  UNL1        0.0083
     11 C          63.0897   86.2896   13.0652 C.ar    1  UNL1        0.0222
     12 C          62.8331   87.4164   12.1087 C.ar    1  UNL1        0.0523
     13 C          61.9910   85.4073    8.7914 C.ar    1  UNL1        0.0173
     14 C          60.6171   85.7359    8.2871 C.ar    1  UNL1        0.0015
     15 C          60.2509   85.4418    6.8625 C.ar    1  UNL1        0.0000
     16 C          61.2586   84.8192    5.9423 C.ar    1  UNL1        0.0000
     17 C          62.6325   84.4906    6.4466 C.ar    1  UNL1        0.0000
     18 C          62.9987   84.7847    7.8712 C.ar    1  UNL1        0.0015
     19 C          62.9427   88.8372   12.5769 C.2     1  UNL1        0.2456
     20 O          61.7022   89.6452   12.8182 O.2     1  UNL1       -0.2702
     21 N          64.2929   89.4501   12.8039 N.am    1  UNL1       -0.3021
     22 H          65.1071   88.9197   12.6455 H       1  UNL1        0.1497
     23 C          64.4026   90.8709   13.2721 C.3     1  UNL1        0.0778
     24 C          64.0451   91.9954   12.3460 C.3     1  UNL1        0.0217
     25 C          64.8697   91.1672   14.6664 C.3     1  UNL1        0.0653
     26 C          66.2221   91.7761   14.8907 C.ar    1  UNL1        0.0607
     27 C          66.4711   92.6239   16.1029 C.ar    1  UNL1        0.0148
     28 C          67.8235   93.2329   16.3272 C.ar    1  UNL1        0.0028
     29 C          68.9268   92.9939   15.3394 C.ar    1  UNL1        0.0207
     30 C          68.6777   92.1461   14.1274 C.ar    1  UNL1        0.0984
     31 N          67.3254   91.5372   13.9030 N.ar    1  UNL1       -0.2481
@<TRIPOS>BOND
     1     1     2    1
     2     2     3   ar
     3     3    13    1
     4    13    14   ar
     5    14    15   ar
     6    15    16   ar
     7    16    17   ar
     8    17    18   ar
     9     3     4   ar
    10     4     5   ar
    11     5     6   ar
    12     6     7   ar
    13     7     8   ar
    14     8     9    1
    15     8    10   ar
    16    10    11   ar
    17    11    12   ar
    18    12    19    1
    19    19    20    2
    20    19    21   am
    21    21    23    1
    22    23    24    1
    23    23    25    1
    24    25    26    1
    25    26    27   ar
    26    27    28   ar
    27    28    29   ar
    28    29    30   ar
    29    30    31   ar
    30    12     2   ar
    31    31    26   ar
    32    18    13   ar
    33    11     5   ar
    34    21    22    1
@<TRIPOS>MOLECULE
*****
 31 34 0 0 0
SMALL
GASTEIGER

@<TRIPOS>ATOM
      1 C          62.5800   88.5065   10.2521 C.3     1  UNL1        0.0328
      2 C          62.6803   87.3436   11.1943 C.ar    1  UNL1        0.0002
      3 C          62.3773   85.9570   10.7090 C.ar    1  UNL1        0.0774
      4 N          62.4775   84.7941   11.6511 N.ar    1  UNL1       -0.2457
      5 C          62.8809   85.0177   13.0785 C.ar    1  UNL1        0.0814
      6 C          62.9812   83.8548   14.0206 C.ar    1  UNL1        0.0196
      7 C          63.3845   84.0786   15.4479 C.ar    1  UNL1        0.0082
      8 C          63.6875   85.4652   15.9331 C.ar    1  UNL1        0.0347
      9 BR         64.0909   85.6889   17.3605 Br      1  UNL1       -0.0490
     10 C          63.5872   86.6281   14.9910 C.ar    1  UNL1        0.0083
     11 C          63.1839   86.4044   13.5637 C.ar    1  UNL1        0.0222
     12 C          63.0836   87.5673   12.6216 C.ar    1  UNL1        0.0523
     13 C          61.9739   85.7333    9.2817 C.ar    1  UNL1        0.0173
     14 C          60.5988   86.1174    8.8218 C.ar    1  UNL1        0.0015
     15 C          60.1955   85.8938    7.3945 C.ar    1  UNL1        0.0000
     16 C          61.1674   85.2859    6.4270 C.ar    1  UNL1        0.0000
     17 C          62.5425   84.9017    6.8868 C.ar    1  UNL1        0.0000
     18 C          62.9457   85.1254    8.3141 C.ar    1  UNL1        0.0015
     19 C          63.3866   88.9539   13.1068 C.2     1  UNL1        0.2456
     20 O          62.5083   90.0997   12.6997 O.2     1  UNL1       -0.2702
     21 N          64.5681   89.1948   13.9992 N.am    1  UNL1       -0.3021
     22 H          65.1445   88.4428   14.2664 H       1  UNL1        0.1497
     23 C          64.8711   90.5814   14.4844 C.3     1  UNL1        0.0778
     24 C          63.9702   91.2385   15.4877 C.3     1  UNL1        0.0217
     25 C          66.0750   91.3109   13.9663 C.3     1  UNL1        0.0653
     26 C          65.9247   92.3206   12.8672 C.ar    1  UNL1        0.0607
     27 C          65.1801   91.9613   11.6155 C.ar    1  UNL1        0.0148
     28 C          65.0298   92.9710   10.5164 C.ar    1  UNL1        0.0028
     29 C          65.6240   94.3398   10.6690 C.ar    1  UNL1        0.0207
     30 C          66.3685   94.6990   11.9206 C.ar    1  UNL1        0.0984
     31 N          66.5189   93.6893   13.0197 N.ar    1  UNL1       -0.2481
@<TRIPOS>BOND
     1     1     2    1
     2     2     3   ar
     3     3    13    1
     4    13    14   ar
     5    14    15   ar
     6    15    16   ar
     7    16    17   ar
     8    17    18   ar
     9     3     4   ar
    10     4     5   ar
    11     5     6   ar
    12     6     7   ar
    13     7     8   ar
    14     8     9    1
    15     8    10   ar
    16    10    11   ar
    17    11    12   ar
    18    12    19    1
    19    19    20    2
    20    19    21   am
    21    21    23    1
    22    23    24    1
    23    23    25    1
    24    25    26    1
    25    26    27   ar
    26    27    28   ar
    27    28    29   ar
    28    29    30   ar
    29    30    31   ar
    30    12     2   ar
    31    31    26   ar
    32    18    13   ar
    33    11     5   ar
    34    21    22    1
@<TRIPOS>MOLECULE
*****
 31 34 0 0 0
SMALL
GASTEIGER

@<TRIPOS>ATOM
      1 C          61.8248   85.2848    9.9219 C.3     1  UNL1        0.0328
      2 C          62.5021   85.7914   11.1608 C.ar    1  UNL1        0.0002
      3 C          63.0953   84.8228   12.1406 C.ar    1  UNL1        0.0774
      4 N          63.7726   85.3293   13.3794 N.ar    1  UNL1       -0.2457
      5 C          63.8567   86.8044   13.6385 C.ar    1  UNL1        0.0814
      6 C          64.5340   87.3108   14.8773 C.ar    1  UNL1        0.0196
      7 C          64.6181   88.7859   15.1363 C.ar    1  UNL1        0.0082
      8 C          64.0249   89.7544   14.1565 C.ar    1  UNL1        0.0347
      9 BR         64.1090   91.2296   14.4156 Br      1  UNL1       -0.0490
     10 C          63.3476   89.2480   12.9177 C.ar    1  UNL1        0.0083
     11 C          63.2635   87.7729   12.6587 C.ar    1  UNL1        0.0222
     12 C          62.5862   87.2664   11.4198 C.ar    1  UNL1        0.0523
     13 C          63.0112   83.3477   11.8815 C.ar    1  UNL1        0.0173
     14 C          63.5646   82.7768   10.6096 C.ar    1  UNL1        0.0015
     15 C          63.4805   81.3018   10.3505 C.ar    1  UNL1        0.0000
     16 C          62.8429   80.3976   11.3634 C.ar    1  UNL1        0.0000
     17 C          62.2895   80.9684   12.6353 C.ar    1  UNL1        0.0000
     18 C          62.3737   82.4435   12.8944 C.ar    1  UNL1        0.0015
     19 C          61.9930   88.2350   10.4400 C.2     1  UNL1        0.2456
     20 O          62.8281   89.3544    9.8928 O.2     1  UNL1       -0.2702
     21 N          60.5646   88.0841   10.0075 N.am    1  UNL1       -0.3021
     22 H          60.0165   87.3494   10.3667 H       1  UNL1        0.1497
     23 C          59.9714   89.0527    9.0277 C.3     1  UNL1        0.0778
     24 C          59.6672   90.4584    9.4533 C.3     1  UNL1        0.0217
     25 C          59.6824   88.6154    7.6222 C.3     1  UNL1        0.0653
     26 C          59.3021   89.6295    6.5845 C.ar    1  UNL1        0.0607
     27 C          60.3681   90.3428    5.8067 C.ar    1  UNL1        0.0148
     28 C          59.9878   91.3569    4.7690 C.ar    1  UNL1        0.0028
     29 C          58.5414   91.6578    4.5090 C.ar    1  UNL1        0.0207
     30 C          57.4754   90.9445    5.2868 C.ar    1  UNL1        0.0984
     31 N          57.8558   89.9304    6.3245 N.ar    1  UNL1       -0.2481
@<TRIPOS>BOND
     1     1     2    1
     2     2     3   ar
     3     3    13    1
     4    13    14   ar
     5    14    15   ar
     6    15    16   ar
     7    16    17   ar
     8    17    18   ar
     9     3     4   ar
    10     4     5   ar
    11     5     6   ar
    12     6     7   ar
    13     7     8   ar
    14     8     9    1
    15     8    10   ar
    16    10    11   ar
    17    11    12   ar
    18    12    19    1
    19    19    20    2
    20    19    21   am
    21    21    23    1
    22    23    24    1
    23    23    25    1
    24    25    26    1
    25    26    27   ar
    26    27    28   ar
    27    28    29   ar
    28    29    30   ar
    29    30    31   ar
    30    12     2   ar
    31    31    26   ar
    32    18    13   ar
    33    11     5   ar
    34    21    22    1
