@<TRIPOS>MOLECULE
*****
 32 35 0 0 0
SMALL
GASTEIGER

@<TRIPOS>ATOM
      1 C          59.2543   89.5584    6.8147 C.ar    1  UNL1        0.0180
      2 C          58.7143   88.1667    6.9622 C.ar    1  UNL1        0.0029
      3 C          59.3217   87.2287    7.9628 C.ar    1  UNL1        0.0189
      4 C          60.4689   87.6824    8.8160 C.ar    1  UNL1        0.0789
      5 C          61.0088   89.0740    8.6686 C.ar    1  UNL1        0.0669
      6 C          60.4015   90.0120    7.6679 C.ar    1  UNL1        0.0174
      7 N          61.0762   86.7444    9.8167 N.ar    1  UNL1       -0.2852
      8 C          61.9899   85.5957    9.5071 C.ar    1  UNL1        0.1023
      9 C          62.3549   84.9318   10.8017 C.ar    1  UNL1        0.1196
     10 N          61.6668   85.6700   11.9114 N.ar    1  UNL1       -0.2220
     11 C          60.8765   86.7903   11.3026 C.ar    1  UNL1        0.1829
     12 N          62.1562   89.5277    9.5218 N.am    1  UNL1       -0.2792
     13 C          61.8931   90.2033   10.8349 C.2     1  UNL1        0.2526
     14 O          60.4827   90.4252   11.2949 O.2     1  UNL1       -0.2697
     15 H          63.0818   89.3820    9.2199 H       1  UNL1        0.1552
     16 C          63.0404   90.6570   11.6881 C.ar    1  UNL1        0.0919
     17 C          63.1967   90.1223   13.0808 C.ar    1  UNL1        0.1066
     18 N          64.3440   90.5760   13.9339 N.ar    1  UNL1       -0.2249
     19 C          65.3349   91.5644   13.3944 C.ar    1  UNL1        0.1623
     20 N          65.1786   92.0991   12.0017 N.ar    1  UNL1       -0.2249
     21 C          64.0313   91.6454   11.1486 C.ar    1  UNL1        0.1066
     22 C          66.4822   92.0181   14.2476 C.ar    1  UNL1        0.0358
     23 C          67.8829   91.9587   13.7143 C.ar    1  UNL1        0.0030
     24 C          69.0301   92.4124   14.5675 C.ar    1  UNL1        0.0001
     25 C          68.7767   92.9254   15.9540 C.ar    1  UNL1        0.0000
     26 C          67.3760   92.9848   16.4874 C.ar    1  UNL1        0.0001
     27 C          66.2287   92.5311   15.6342 C.ar    1  UNL1        0.0030
     28 N          59.5214   91.4425    5.0460 N.2     1  UNL1       -0.0873
     29 C          58.6469   90.4964    5.8141 C.2     1  UNL1        0.0974
     30 C          57.1651   90.4883    5.5816 C.3     1  UNL1        0.0555
     31 C          59.7258   92.8613    2.8790 C.3     1  UNL1        0.2885
     32 O          58.9141   92.3805    4.0453 O.2     1  UNL1       -0.3734
@<TRIPOS>BOND
     1    31    32    1
     2    32    28    1
     3    28    29    2
     4    29    30    1
     5    29     1    1
     6     1     2   ar
     7     2     3   ar
     8     3     4   ar
     9     4     7    1
    10     7     8   ar
    11     8     9   ar
    12     9    10   ar
    13    10    11   ar
    14     4     5   ar
    15     5    12    1
    16    12    13   am
    17    13    14    2
    18    13    16    1
    19    16    17   ar
    20    17    18   ar
    21    18    19   ar
    22    19    22    1
    23    22    23   ar
    24    23    24   ar
    25    24    25   ar
    26    25    26   ar
    27    26    27   ar
    28    19    20   ar
    29    20    21   ar
    30     5     6   ar
    31     6     1   ar
    32    11     7   ar
    33    21    16   ar
    34    27    22   ar
    35    12    15    1
@<TRIPOS>MOLECULE
*****
 32 35 0 0 0
SMALL
GASTEIGER

@<TRIPOS>ATOM
      1 C          64.8792   91.4387   14.0878 C.ar    1  UNL1        0.0180
      2 C          64.5165   91.7058   15.5185 C.ar    1  UNL1        0.0029
      3 C          63.8502   90.6385   16.3351 C.ar    1  UNL1        0.0189
      4 C          63.5464   89.3041   15.7210 C.ar    1  UNL1        0.0789
      5 C          63.9091   89.0371   14.2903 C.ar    1  UNL1        0.0669
      6 C          64.5755   90.1043   13.4736 C.ar    1  UNL1        0.0174
      7 N          62.8801   88.2369   16.5377 N.ar    1  UNL1       -0.2852
      8 C          63.4048   87.6454   17.8123 C.ar    1  UNL1        0.1023
      9 C          62.4210   86.6167   18.2855 C.ar    1  UNL1        0.1196
     10 N          61.2883   86.5723   17.3032 N.ar    1  UNL1       -0.2220
     11 C          61.5720   87.5736   16.2230 C.ar    1  UNL1        0.1829
     12 N          63.6054   87.7026   13.6761 N.am    1  UNL1       -0.2792
     13 C          64.3292   86.4770   14.1492 C.2     1  UNL1        0.2526
     14 O          65.3567   86.5857   15.2366 O.2     1  UNL1       -0.2697
     15 H          62.9310   87.6313   12.9624 H       1  UNL1        0.1552
     16 C          64.0255   85.1426   13.5350 C.ar    1  UNL1        0.0919
     17 C          63.1328   85.0561   12.3327 C.ar    1  UNL1        0.1066
     18 N          62.8291   83.7217   11.7186 N.ar    1  UNL1       -0.2249
     19 C          63.4181   82.4739   12.3068 C.ar    1  UNL1        0.1623
     20 N          64.3109   82.5604   13.5090 N.ar    1  UNL1       -0.2249
     21 C          64.6145   83.8948   14.1232 C.ar    1  UNL1        0.1066
     22 C          63.1144   81.1395   11.6926 C.ar    1  UNL1        0.0358
     23 C          62.6941   79.9918   12.5621 C.ar    1  UNL1        0.0030
     24 C          62.3904   78.6575   11.9479 C.ar    1  UNL1        0.0001
     25 C          62.5071   78.4708   10.4641 C.ar    1  UNL1        0.0000
     26 C          62.9274   79.6185    9.5946 C.ar    1  UNL1        0.0001
     27 C          63.2311   80.9528   10.2088 C.ar    1  UNL1        0.0030
     28 N          65.2671   92.6089   11.8009 N.2     1  UNL1       -0.0873
     29 C          65.5455   92.5060   13.2711 C.2     1  UNL1        0.0974
     30 C          66.4904   93.4703   13.9248 C.3     1  UNL1        0.0555
     31 C          67.0467   93.3168   10.0453 C.3     1  UNL1        0.2885
     32 O          65.9334   93.6762   10.9842 O.2     1  UNL1       -0.3734
@<TRIPOS>BOND
     1    31    32    1
     2    32    28    1
     3    28    29    2
     4    29    30    1
     5    29     1    1
     6     1     2   ar
     7     2     3   ar
     8     3     4   ar
     9     4     7    1
    10     7     8   ar
    11     8     9   ar
    12     9    10   ar
    13    10    11   ar
    14     4     5   ar
    15     5    12    1
    16    12    13   am
    17    13    14    2
    18    13    16    1
    19    16    17   ar
    20    17    18   ar
    21    18    19   ar
    22    19    22    1
    23    22    23   ar
    24    23    24   ar
    25    24    25   ar
    26    25    26   ar
    27    26    27   ar
    28    19    20   ar
    29    20    21   ar
    30     5     6   ar
    31     6     1   ar
    32    11     7   ar
    33    21    16   ar
    34    27    22   ar
    35    12    15    1
@<TRIPOS>MOLECULE
*****
 32 35 0 0 0
SMALL
GASTEIGER

@<TRIPOS>ATOM
      1 C          64.7538   91.1500   13.5221 C.ar    1  UNL1        0.0180
      2 C          64.3692   91.6053   14.8986 C.ar    1  UNL1        0.0029
      3 C          63.9000   90.6070   15.9150 C.ar    1  UNL1        0.0189
      4 C          63.8154   89.1533   15.5550 C.ar    1  UNL1        0.0789
      5 C          64.2000   88.6980   14.1785 C.ar    1  UNL1        0.0669
      6 C          64.6692   89.6964   13.1621 C.ar    1  UNL1        0.0174
      7 N          63.3462   88.1550   16.5714 N.ar    1  UNL1       -0.2852
      8 C          63.3171   86.6656   16.3962 C.ar    1  UNL1        0.1023
      9 C          62.7766   86.0608   17.6581 C.ar    1  UNL1        0.1196
     10 N          62.4717   87.1765   18.6132 N.ar    1  UNL1       -0.2220
     11 C          62.8237   88.4708   17.9416 C.ar    1  UNL1        0.1829
     12 N          64.1154   87.2443   13.8184 N.am    1  UNL1       -0.2792
     13 C          63.1703   86.7912   12.7455 C.2     1  UNL1        0.2526
     14 O          62.3097   87.7917   12.0325 O.2     1  UNL1       -0.2697
     15 H          64.6803   86.5876   14.2864 H       1  UNL1        0.1552
     16 C          63.0857   85.3374   12.3854 C.ar    1  UNL1        0.0919
     17 C          63.2848   84.9042   10.9632 C.ar    1  UNL1        0.1066
     18 N          63.2002   83.4506   10.6032 N.ar    1  UNL1       -0.2249
     19 C          62.9165   82.4301   11.6653 C.ar    1  UNL1        0.1623
     20 N          62.7174   82.8633   13.0875 N.ar    1  UNL1       -0.2249
     21 C          62.8020   84.3170   13.4475 C.ar    1  UNL1        0.1066
     22 C          62.8319   80.9764   11.3053 C.ar    1  UNL1        0.0358
     23 C          62.5883   79.9520   12.3736 C.ar    1  UNL1        0.0030
     24 C          62.5038   78.4984   12.0135 C.ar    1  UNL1        0.0001
     25 C          62.6628   78.0691   10.5850 C.ar    1  UNL1        0.0000
     26 C          62.9064   79.0934    9.5167 C.ar    1  UNL1        0.0001
     27 C          62.9909   80.5471    9.8768 C.ar    1  UNL1        0.0030
     28 N          66.3333   93.0983   12.8444 N.2     1  UNL1       -0.0873
     29 C          65.2230   92.1484   12.5057 C.2     1  UNL1        0.0974
     30 C          64.5819   92.1967   11.1505 C.3     1  UNL1        0.0555
     31 C          66.0817   95.4028   11.6713 C.3     1  UNL1        0.2885
     32 O          66.8025   94.0967   11.8280 O.2     1  UNL1       -0.3734
@<TRIPOS>BOND
     1    31    32    1
     2    32    28    1
     3    28    29    2
     4    29    30    1
     5    29     1    1
     6     1     2   ar
     7     2     3   ar
     8     3     4   ar
     9     4     7    1
    10     7     8   ar
    11     8     9   ar
    12     9    10   ar
    13    10    11   ar
    14     4     5   ar
    15     5    12    1
    16    12    13   am
    17    13    14    2
    18    13    16    1
    19    16    17   ar
    20    17    18   ar
    21    18    19   ar
    22    19    22    1
    23    22    23   ar
    24    23    24   ar
    25    24    25   ar
    26    25    26   ar
    27    26    27   ar
    28    19    20   ar
    29    20    21   ar
    30     5     6   ar
    31     6     1   ar
    32    11     7   ar
    33    21    16   ar
    34    27    22   ar
    35    12    15    1
