@<TRIPOS>MOLECULE
*****
 30 32 0 0 0
SMALL
GASTEIGER

@<TRIPOS>ATOM
      1 C          64.8079   85.7966   15.2347 C.3     1  UNL1        0.0327
      2 C          64.0997   86.4468   14.0834 C.ar    1  UNL1       -0.0013
      3 C          63.4280   85.6016   13.0421 C.ar    1  UNL1        0.0946
      4 N          62.7198   86.2519   11.8907 N.ar    1  UNL1       -0.2425
      5 C          62.6832   87.7474   11.7808 C.ar    1  UNL1        0.1028
      6 C          62.0667   88.6645   10.7664 C.ar    1  UNL1        0.0895
      7 C          62.3573   90.0765   11.1809 C.ar    1  UNL1        0.0823
      8 N          63.1534   90.0321   12.4514 N.ar    1  UNL1       -0.3190
      9 C          63.3548   88.5926   12.8221 C.ar    1  UNL1        0.0780
     10 C          64.0631   87.9423   13.9735 C.ar    1  UNL1        0.0160
     11 C          61.2951   88.2434    9.5510 C.2     1  UNL1        0.2489
     12 O          60.5797   89.2701    8.7239 O.2     1  UNL1       -0.2700
     13 N          61.2388   86.7957    9.1627 N.am    1  UNL1       -0.2984
     14 H          61.7083   86.1218    9.7055 H       1  UNL1        0.1498
     15 C          60.4672   86.3746    7.9472 C.3     1  UNL1        0.1215
     16 C          58.9905   86.6272    7.8716 C.3     1  UNL1        0.1583
     17 O          58.4778   87.9068    7.2803 O.3     1  UNL1       -0.3802
     18 H          58.7412   88.6515    7.8433 H       1  UNL1        0.2105
     19 C          63.6593   91.2188   13.2168 C.3     1  UNL1        0.1518
     20 C          65.1108   91.5913   13.1497 C.ar    1  UNL1        0.0841
     21 N          66.0340   91.2163   14.2708 N.ar    1  UNL1       -0.2265
     22 C          67.4854   91.5889   14.2037 C.ar    1  UNL1        0.2012
     23 N          68.0137   92.3364   13.0154 N.ar    1  UNL1       -0.1895
     24 C          67.0904   92.7114   11.8942 C.ar    1  UNL1        0.2282
     25 C          65.6390   92.3389   11.9613 C.ar    1  UNL1        0.0469
     26 C          64.7158   92.7139   10.8401 C.3     1  UNL1        0.0372
     27 O          67.6187   93.4589   10.7058 O.3     1  UNL1       -0.4070
     28 C          67.9800   92.7171    9.4531 C.3     1  UNL1        0.5097
     29 F          68.1759   91.2305    9.4918 F       1  UNL1       -0.1549
     30 F          68.1455   93.4620    8.1617 F       1  UNL1       -0.1549
@<TRIPOS>BOND
     1     1     2    1
     2     2     3   ar
     3     3     4   ar
     4     4     5   ar
     5     5     6   ar
     6     6    11    1
     7    11    12    2
     8    11    13   am
     9    13    15    1
    10    15    16    1
    11    16    17    1
    12     6     7   ar
    13     7     8   ar
    14     8    19    1
    15    19    20    1
    16    20    21   ar
    17    21    22   ar
    18    22    23   ar
    19    23    24   ar
    20    24    27    1
    21    27    28    1
    22    28    29    1
    23    28    30    1
    24    24    25   ar
    25    25    26    1
    26     8     9   ar
    27     9    10   ar
    28    10     2   ar
    29     9     5   ar
    30    25    20   ar
    31    13    14    1
    32    17    18    1
@<TRIPOS>MOLECULE
*****
 30 32 0 0 0
SMALL
GASTEIGER

@<TRIPOS>ATOM
      1 C          63.1905   89.5011   16.6387 C.3     1  UNL1        0.0327
      2 C          63.6406   90.1970   15.3884 C.ar    1  UNL1       -0.0013
      3 C          64.8350   91.1037   15.4233 C.ar    1  UNL1        0.0946
      4 N          65.2850   91.7997   14.1731 N.ar    1  UNL1       -0.2425
      5 C          64.5407   91.5890   12.8880 C.ar    1  UNL1        0.1028
      6 C          64.7482   92.1355   11.5066 C.ar    1  UNL1        0.0895
      7 C          63.6820   91.5666   10.6180 C.ar    1  UNL1        0.0823
      8 N          62.8156   90.6684   11.4501 N.ar    1  UNL1       -0.3190
      9 C          63.3463   90.6823   12.8531 C.ar    1  UNL1        0.0780
     10 C          62.8963   89.9863   14.1033 C.ar    1  UNL1        0.0160
     11 C          65.8317   93.0844   11.0875 C.2     1  UNL1        0.2489
     12 O          67.1256   93.1273   11.8450 O.2     1  UNL1       -0.2700
     13 N          65.6212   93.9905    9.9107 N.am    1  UNL1       -0.2984
     14 H          64.7720   93.9625    9.4135 H       1  UNL1        0.1498
     15 C          66.7047   94.9394    9.4916 C.3     1  UNL1        0.1215
     16 C          67.9456   94.4163    8.8310 C.3     1  UNL1        0.1583
     17 O          68.9253   93.5967    9.6174 O.3     1  UNL1       -0.3802
     18 H          69.3282   94.1478   10.3066 H       1  UNL1        0.2105
     19 C          61.6271   89.8927   10.9647 C.3     1  UNL1        0.1518
     20 C          61.7534   88.4245   10.6845 C.ar    1  UNL1        0.0841
     21 N          62.4702   87.5344   11.6560 N.ar    1  UNL1       -0.2265
     22 C          62.5964   86.0662   11.3758 C.ar    1  UNL1        0.2012
     23 N          62.0059   85.4881   10.1240 N.ar    1  UNL1       -0.1895
     24 C          61.2891   86.3782    9.1524 C.ar    1  UNL1        0.2282
     25 C          61.1628   87.8464    9.4326 C.ar    1  UNL1        0.0469
     26 C          60.4460   88.7364    8.4610 C.3     1  UNL1        0.0372
     27 O          60.6985   85.8001    7.9006 O.3     1  UNL1       -0.4070
     28 C          61.5413   84.9496    6.9971 C.3     1  UNL1        0.5097
     29 F          60.8912   84.0969    5.9482 F       1  UNL1       -0.1549
     30 F          63.0342   84.9516    7.1426 F       1  UNL1       -0.1549
@<TRIPOS>BOND
     1     1     2    1
     2     2     3   ar
     3     3     4   ar
     4     4     5   ar
     5     5     6   ar
     6     6    11    1
     7    11    12    2
     8    11    13   am
     9    13    15    1
    10    15    16    1
    11    16    17    1
    12     6     7   ar
    13     7     8   ar
    14     8    19    1
    15    19    20    1
    16    20    21   ar
    17    21    22   ar
    18    22    23   ar
    19    23    24   ar
    20    24    27    1
    21    27    28    1
    22    28    29    1
    23    28    30    1
    24    24    25   ar
    25    25    26    1
    26     8     9   ar
    27     9    10   ar
    28    10     2   ar
    29     9     5   ar
    30    25    20   ar
    31    13    14    1
    32    17    18    1
@<TRIPOS>MOLECULE
*****
 30 32 0 0 0
SMALL
GASTEIGER

@<TRIPOS>ATOM
      1 C          58.9565   89.2130    6.8406 C.3     1  UNL1        0.0327
      2 C          59.7702   88.4454    7.8400 C.ar    1  UNL1       -0.0013
      3 C          59.8760   86.9530    7.7333 C.ar    1  UNL1        0.0946
      4 N          60.6897   86.1854    8.7326 N.ar    1  UNL1       -0.2425
      5 C          61.3976   86.9103    9.8387 C.ar    1  UNL1        0.1028
      6 C          62.2657   86.4257   10.9619 C.ar    1  UNL1        0.0895
      7 C          62.6965   87.6186   11.7627 C.ar    1  UNL1        0.0823
      8 N          62.0945   88.8405   11.1346 N.ar    1  UNL1       -0.3190
      9 C          61.2917   88.4027    9.9454 C.ar    1  UNL1        0.0780
     10 C          60.4781   89.1703    8.9461 C.ar    1  UNL1        0.0160
     11 C          62.6378   84.9986   11.2360 C.2     1  UNL1        0.2489
     12 O          63.1690   84.1362   10.1296 O.2     1  UNL1       -0.2700
     13 N          62.4787   84.4340   12.6165 N.am    1  UNL1       -0.2984
     14 H          62.1301   85.0000   13.3427 H       1  UNL1        0.1498
     15 C          62.8508   83.0070   12.8906 C.3     1  UNL1        0.1215
     16 C          64.2937   82.5971   12.9028 C.3     1  UNL1        0.1583
     17 O          65.0721   82.5546   11.6214 O.3     1  UNL1       -0.3802
     18 H          64.7114   81.8614   11.0468 H       1  UNL1        0.2105
     19 C          62.2653   90.2523   11.6117 C.3     1  UNL1        0.1518
     20 C          63.1328   90.5424   12.8006 C.ar    1  UNL1        0.0841
     21 N          62.7729   89.9844   14.1456 N.ar    1  UNL1       -0.2265
     22 C          63.6403   90.2745   15.3345 C.ar    1  UNL1        0.2012
     23 N          64.8676   91.1226   15.1783 N.ar    1  UNL1       -0.1895
     24 C          65.2275   91.6806   13.8332 C.ar    1  UNL1        0.2282
     25 C          64.3601   91.3905   12.6443 C.ar    1  UNL1        0.0469
     26 C          64.7201   91.9485   11.2993 C.3     1  UNL1        0.0372
     27 O          66.4549   92.5287   13.6771 O.3     1  UNL1       -0.4070
     28 C          67.8119   91.9350   13.9138 C.3     1  UNL1        0.5097
     29 F          68.3493   91.8251   15.3099 F       1  UNL1       -0.1549
     30 F          68.6315   91.4511   12.7545 F       1  UNL1       -0.1549
@<TRIPOS>BOND
     1     1     2    1
     2     2     3   ar
     3     3     4   ar
     4     4     5   ar
     5     5     6   ar
     6     6    11    1
     7    11    12    2
     8    11    13   am
     9    13    15    1
    10    15    16    1
    11    16    17    1
    12     6     7   ar
    13     7     8   ar
    14     8    19    1
    15    19    20    1
    16    20    21   ar
    17    21    22   ar
    18    22    23   ar
    19    23    24   ar
    20    24    27    1
    21    27    28    1
    22    28    29    1
    23    28    30    1
    24    24    25   ar
    25    25    26    1
    26     8     9   ar
    27     9    10   ar
    28    10     2   ar
    29     9     5   ar
    30    25    20   ar
    31    13    14    1
    32    17    18    1
@<TRIPOS>MOLECULE
*****
 30 32 0 0 0
SMALL
GASTEIGER

@<TRIPOS>ATOM
      1 C          64.7279   85.9671   15.3647 C.3     1  UNL1        0.0327
      2 C          64.0453   86.5102   14.1444 C.ar    1  UNL1       -0.0013
      3 C          63.4040   85.5732   13.1643 C.ar    1  UNL1        0.0946
      4 N          62.7214   86.1163   11.9440 N.ar    1  UNL1       -0.2425
      5 C          62.6801   87.5964   11.7039 C.ar    1  UNL1        0.1028
      6 C          62.0844   88.4177   10.5991 C.ar    1  UNL1        0.0895
      7 C          62.3576   89.8624   10.8965 C.ar    1  UNL1        0.0823
      8 N          63.1220   89.9339   12.1851 N.ar    1  UNL1       -0.3190
      9 C          63.3214   88.5333   12.6840 C.ar    1  UNL1        0.0780
     10 C          64.0040   87.9903   13.9043 C.ar    1  UNL1        0.0160
     11 C          61.3454   87.8875    9.4063 C.2     1  UNL1        0.2489
     12 O          61.7681   86.5936    8.7763 O.2     1  UNL1       -0.2700
     13 N          60.1836   88.6513    8.8435 N.am    1  UNL1       -0.2984
     14 H          59.9061   89.5006    9.2570 H       1  UNL1        0.1498
     15 C          59.4445   88.1211    7.6507 C.3     1  UNL1        0.1215
     16 C          58.8095   86.7632    7.7046 C.3     1  UNL1        0.1583
     17 O          59.5896   85.5532    7.2834 O.3     1  UNL1       -0.3802
     18 H          59.7801   85.6058    6.3337 H       1  UNL1        0.2105
     19 C          63.6028   91.1859   12.8568 C.3     1  UNL1        0.1518
     20 C          64.9247   91.7823   12.4737 C.ar    1  UNL1        0.0841
     21 N          65.0879   92.4512   11.1410 N.ar    1  UNL1       -0.2265
     22 C          66.4098   93.0476   10.7580 C.ar    1  UNL1        0.2012
     23 N          67.5687   92.9752   11.7076 N.ar    1  UNL1       -0.1895
     24 C          67.4055   92.3063   13.0403 C.ar    1  UNL1        0.2282
     25 C          66.0836   91.7099   13.4234 C.ar    1  UNL1        0.0469
     26 C          65.9205   91.0411   14.7561 C.3     1  UNL1        0.0372
     27 O          68.5644   92.2339   13.9899 O.3     1  UNL1       -0.4070
     28 C          68.5029   92.9536   15.3046 C.3     1  UNL1        0.5097
     29 F          69.2446   92.4129   16.4910 F       1  UNL1       -0.1549
     30 F          67.6997   94.2139   15.4329 F       1  UNL1       -0.1549
@<TRIPOS>BOND
     1     1     2    1
     2     2     3   ar
     3     3     4   ar
     4     4     5   ar
     5     5     6   ar
     6     6    11    1
     7    11    12    2
     8    11    13   am
     9    13    15    1
    10    15    16    1
    11    16    17    1
    12     6     7   ar
    13     7     8   ar
    14     8    19    1
    15    19    20    1
    16    20    21   ar
    17    21    22   ar
    18    22    23   ar
    19    23    24   ar
    20    24    27    1
    21    27    28    1
    22    28    29    1
    23    28    30    1
    24    24    25   ar
    25    25    26    1
    26     8     9   ar
    27     9    10   ar
    28    10     2   ar
    29     9     5   ar
    30    25    20   ar
    31    13    14    1
    32    17    18    1
@<TRIPOS>MOLECULE
*****
 30 32 0 0 0
SMALL
GASTEIGER

@<TRIPOS>ATOM
      1 C          60.0741   89.2081    8.2106 C.3     1  UNL1        0.0327
      2 C          60.8497   88.5614    9.3198 C.ar    1  UNL1       -0.0013
      3 C          60.9052   87.0661    9.4234 C.ar    1  UNL1        0.0946
      4 N          61.6809   86.4194   10.5325 N.ar    1  UNL1       -0.2425
      5 C          62.4010   87.2681   11.5380 C.ar    1  UNL1        0.1028
      6 C          63.2395   86.9169   12.7312 C.ar    1  UNL1        0.0895
      7 C          63.7022   88.1953   13.3650 C.ar    1  UNL1        0.0823
      8 N          63.1497   89.3365   12.5635 N.ar    1  UNL1       -0.3190
      9 C          62.3455   88.7634   11.4344 C.ar    1  UNL1        0.0780
     10 C          61.5699   89.4101   10.3253 C.ar    1  UNL1        0.0160
     11 C          63.5591   85.5308   13.2070 C.2     1  UNL1        0.2489
     12 O          64.4596   85.3329   14.3902 O.2     1  UNL1       -0.2700
     13 N          62.9783   84.3424   12.4996 N.am    1  UNL1       -0.2984
     14 H          62.3873   84.4722   11.7230 H       1  UNL1        0.1498
     15 C          63.2979   82.9563   12.9754 C.3     1  UNL1        0.1215
     16 C          62.5601   82.3761   14.1454 C.3     1  UNL1        0.1583
     17 O          62.8609   82.8559   15.5345 O.3     1  UNL1       -0.3802
     18 H          63.7670   82.6057   15.7738 H       1  UNL1        0.2105
     19 C          63.3638   90.7948   12.8422 C.3     1  UNL1        0.1518
     20 C          64.7565   91.3442   12.9341 C.ar    1  UNL1        0.0841
     21 N          65.5829   91.0922   14.1602 N.ar    1  UNL1       -0.2265
     22 C          66.9757   91.6416   14.2520 C.ar    1  UNL1        0.2012
     23 N          67.5420   92.4431   13.1176 N.ar    1  UNL1       -0.1895
     24 C          66.7156   92.6951   11.8914 C.ar    1  UNL1        0.2282
     25 C          65.3229   92.1457   11.7996 C.ar    1  UNL1        0.0469
     26 C          64.4965   92.3977   10.5734 C.3     1  UNL1        0.0372
     27 O          67.2820   93.4966   10.7570 O.3     1  UNL1       -0.4070
     28 C          67.8164   92.8007    9.5405 C.3     1  UNL1        0.5097
     29 F          68.0875   91.3259    9.5784 F       1  UNL1       -0.1549
     30 F          68.0799   93.5795    8.2859 F       1  UNL1       -0.1549
@<TRIPOS>BOND
     1     1     2    1
     2     2     3   ar
     3     3     4   ar
     4     4     5   ar
     5     5     6   ar
     6     6    11    1
     7    11    12    2
     8    11    13   am
     9    13    15    1
    10    15    16    1
    11    16    17    1
    12     6     7   ar
    13     7     8   ar
    14     8    19    1
    15    19    20    1
    16    20    21   ar
    17    21    22   ar
    18    22    23   ar
    19    23    24   ar
    20    24    27    1
    21    27    28    1
    22    28    29    1
    23    28    30    1
    24    24    25   ar
    25    25    26    1
    26     8     9   ar
    27     9    10   ar
    28    10     2   ar
    29     9     5   ar
    30    25    20   ar
    31    13    14    1
    32    17    18    1
@<TRIPOS>MOLECULE
*****
 30 32 0 0 0
SMALL
GASTEIGER

@<TRIPOS>ATOM
      1 C          59.8216   88.9474    8.0493 C.3     1  UNL1        0.0327
      2 C          60.6243   88.3488    9.1661 C.ar    1  UNL1       -0.0013
      3 C          60.5616   86.8731    9.4276 C.ar    1  UNL1        0.0946
      4 N          61.3643   86.2745   10.5444 N.ar    1  UNL1       -0.2425
      5 C          62.2298   87.1515   11.3997 C.ar    1  UNL1        0.1028
      6 C          63.1265   86.8484   12.5634 C.ar    1  UNL1        0.0895
      7 C          63.7434   88.1368   13.0211 C.ar    1  UNL1        0.0823
      8 N          63.2281   89.2362   12.1404 N.ar    1  UNL1       -0.3190
      9 C          62.2926   88.6272   11.1382 C.ar    1  UNL1        0.0780
     10 C          61.4898   89.2258   10.0214 C.ar    1  UNL1        0.0160
     11 C          63.3644   85.4946   13.1639 C.2     1  UNL1        0.2489
     12 O          64.2524   85.3521   14.3643 O.2     1  UNL1       -0.2700
     13 N          62.7143   84.2833   12.5639 N.am    1  UNL1       -0.2984
     14 H          62.1314   84.3767   11.7760 H       1  UNL1        0.1498
     15 C          62.9522   82.9295   13.1644 C.3     1  UNL1        0.1215
     16 C          62.2274   82.5253   14.4139 C.3     1  UNL1        0.1583
     17 O          61.9302   81.0782   14.6739 O.3     1  UNL1       -0.3802
     18 H          61.3027   80.7526   14.0097 H       1  UNL1        0.2105
     19 C          63.5854   90.6893   12.2435 C.3     1  UNL1        0.1518
     20 C          64.1405   91.2359   13.5253 C.ar    1  UNL1        0.0841
     21 N          63.4710   90.9170   14.8291 N.ar    1  UNL1       -0.2265
     22 C          64.0261   91.4636   16.1109 C.ar    1  UNL1        0.2012
     23 N          65.2510   92.3293   16.0889 N.ar    1  UNL1       -0.1895
     24 C          65.9206   92.6483   14.7850 C.ar    1  UNL1        0.2282
     25 C          65.3654   92.1016   13.5032 C.ar    1  UNL1        0.0469
     26 C          66.0350   92.4206   12.1995 C.3     1  UNL1        0.0372
     27 O          67.1454   93.5139   14.7630 O.3     1  UNL1       -0.4070
     28 C          68.2589   93.2627   15.7362 C.3     1  UNL1        0.5097
     29 F          68.2599   92.0152   16.5691 F       1  UNL1       -0.1549
     30 F          69.3714   94.2590   15.8765 F       1  UNL1       -0.1549
@<TRIPOS>BOND
     1     1     2    1
     2     2     3   ar
     3     3     4   ar
     4     4     5   ar
     5     5     6   ar
     6     6    11    1
     7    11    12    2
     8    11    13   am
     9    13    15    1
    10    15    16    1
    11    16    17    1
    12     6     7   ar
    13     7     8   ar
    14     8    19    1
    15    19    20    1
    16    20    21   ar
    17    21    22   ar
    18    22    23   ar
    19    23    24   ar
    20    24    27    1
    21    27    28    1
    22    28    29    1
    23    28    30    1
    24    24    25   ar
    25    25    26    1
    26     8     9   ar
    27     9    10   ar
    28    10     2   ar
    29     9     5   ar
    30    25    20   ar
    31    13    14    1
    32    17    18    1
@<TRIPOS>MOLECULE
*****
 30 32 0 0 0
SMALL
GASTEIGER

@<TRIPOS>ATOM
      1 C          63.1998   84.3365   11.9229 C.3     1  UNL1        0.0327
      2 C          62.4721   85.4039   11.1605 C.ar    1  UNL1       -0.0013
      3 C          61.7640   85.0626    9.8830 C.ar    1  UNL1        0.0946
      4 N          61.0364   86.1300    9.1206 N.ar    1  UNL1       -0.2425
      5 C          61.0168   87.5386    9.6358 C.ar    1  UNL1        0.1028
      6 C          60.3877   88.7928    9.1053 C.ar    1  UNL1        0.0895
      7 C          60.7071   89.9091   10.0550 C.ar    1  UNL1        0.0823
      8 N          61.5335   89.3449   11.1724 N.ar    1  UNL1       -0.3190
      9 C          61.7249   87.8798   10.9133 C.ar    1  UNL1        0.0780
     10 C          62.4526   86.8124   11.6757 C.ar    1  UNL1        0.0160
     11 C          59.5810   88.9100    7.8462 C.2     1  UNL1        0.2489
     12 O          58.5731   87.8543    7.5002 O.2     1  UNL1       -0.2700
     13 N          59.7820   90.0829    6.9330 N.am    1  UNL1       -0.2984
     14 H          60.4435   90.7758    7.1601 H       1  UNL1        0.1498
     15 C          58.9753   90.2001    5.6739 C.3     1  UNL1        0.1215
     16 C          58.7109   91.5499    5.0755 C.3     1  UNL1        0.1583
     17 O          57.3313   92.1363    5.1278 O.3     1  UNL1       -0.3802
     18 H          56.7308   91.5989    4.5878 H       1  UNL1        0.2105
     19 C          62.0737   90.1111   12.3433 C.3     1  UNL1        0.1518
     20 C          63.3653   90.8632   12.2161 C.ar    1  UNL1        0.0841
     21 N          63.7418   91.4911   10.9069 N.ar    1  UNL1       -0.2265
     22 C          65.0333   92.2431   10.7797 C.ar    1  UNL1        0.2012
     23 N          65.9485   92.3674   11.9617 N.ar    1  UNL1       -0.1895
     24 C          65.5719   91.7395   13.2709 C.ar    1  UNL1        0.2282
     25 C          64.2803   90.9874   13.3982 C.ar    1  UNL1        0.0469
     26 C          63.9039   90.3596   14.7074 C.3     1  UNL1        0.0372
     27 O          66.4871   91.8637   14.4529 O.3     1  UNL1       -0.4070
     28 C          66.9350   93.2185   14.9155 C.3     1  UNL1        0.5097
     29 F          66.4628   94.4493   14.1999 F       1  UNL1       -0.1549
     30 F          67.8551   93.3424   16.0936 F       1  UNL1       -0.1549
@<TRIPOS>BOND
     1     1     2    1
     2     2     3   ar
     3     3     4   ar
     4     4     5   ar
     5     5     6   ar
     6     6    11    1
     7    11    12    2
     8    11    13   am
     9    13    15    1
    10    15    16    1
    11    16    17    1
    12     6     7   ar
    13     7     8   ar
    14     8    19    1
    15    19    20    1
    16    20    21   ar
    17    21    22   ar
    18    22    23   ar
    19    23    24   ar
    20    24    27    1
    21    27    28    1
    22    28    29    1
    23    28    30    1
    24    24    25   ar
    25    25    26    1
    26     8     9   ar
    27     9    10   ar
    28    10     2   ar
    29     9     5   ar
    30    25    20   ar
    31    13    14    1
    32    17    18    1
@<TRIPOS>MOLECULE
*****
 30 32 0 0 0
SMALL
GASTEIGER

@<TRIPOS>ATOM
      1 C          58.9920   89.2983    6.7634 C.3     1  UNL1        0.0327
      2 C          59.7936   88.5950    7.8183 C.ar    1  UNL1       -0.0013
      3 C          59.9042   87.0992    7.8034 C.ar    1  UNL1        0.0946
      4 N          60.7058   86.3959    8.8584 N.ar    1  UNL1       -0.2425
      5 C          61.3966   87.1884    9.9282 C.ar    1  UNL1        0.1028
      6 C          62.2503   86.7752   11.0903 C.ar    1  UNL1        0.0895
      7 C          62.6672   88.0157   11.8234 C.ar    1  UNL1        0.0823
      8 N          62.0712   89.1956   11.1144 N.ar    1  UNL1       -0.3190
      9 C          61.2860   88.6842    9.9431 C.ar    1  UNL1        0.0780
     10 C          60.4844   89.3875    8.8882 C.ar    1  UNL1        0.0160
     11 C          62.6218   85.3685   11.4552 C.2     1  UNL1        0.2489
     12 O          63.1974   84.4515   10.4171 O.2     1  UNL1       -0.2700
     13 N          62.4177   84.8788   12.8582 N.am    1  UNL1       -0.2984
     14 H          62.0399   85.4807   13.5396 H       1  UNL1        0.1498
     15 C          62.7892   83.4721   13.2231 C.3     1  UNL1        0.1215
     16 C          62.2617   82.8610   14.4873 C.3     1  UNL1        0.1583
     17 O          63.1610   82.7065   15.6779 O.3     1  UNL1       -0.3802
     18 H          63.8642   82.0710   15.4715 H       1  UNL1        0.2105
     19 C          62.2322   90.6341   11.5077 C.3     1  UNL1        0.1518
     20 C          63.5941   91.1770   11.8249 C.ar    1  UNL1        0.0841
     21 N          64.3942   91.8651   10.7590 N.ar    1  UNL1       -0.2265
     22 C          65.7560   92.4080   11.0762 C.ar    1  UNL1        0.2012
     23 N          66.3178   92.2628   12.4594 N.ar    1  UNL1       -0.1895
     24 C          65.5176   91.5747   13.5254 C.ar    1  UNL1        0.2282
     25 C          64.1558   91.0318   13.2082 C.ar    1  UNL1        0.0469
     26 C          63.3557   90.3437   14.2742 C.3     1  UNL1        0.0372
     27 O          66.0794   91.4295   14.9087 O.3     1  UNL1       -0.4070
     28 C          67.0726   92.4288   15.4235 C.3     1  UNL1        0.5097
     29 F          66.9873   93.8624   14.9906 F       1  UNL1       -0.1549
     30 F          68.1511   91.9944   16.3711 F       1  UNL1       -0.1549
@<TRIPOS>BOND
     1     1     2    1
     2     2     3   ar
     3     3     4   ar
     4     4     5   ar
     5     5     6   ar
     6     6    11    1
     7    11    12    2
     8    11    13   am
     9    13    15    1
    10    15    16    1
    11    16    17    1
    12     6     7   ar
    13     7     8   ar
    14     8    19    1
    15    19    20    1
    16    20    21   ar
    17    21    22   ar
    18    22    23   ar
    19    23    24   ar
    20    24    27    1
    21    27    28    1
    22    28    29    1
    23    28    30    1
    24    24    25   ar
    25    25    26    1
    26     8     9   ar
    27     9    10   ar
    28    10     2   ar
    29     9     5   ar
    30    25    20   ar
    31    13    14    1
    32    17    18    1
@<TRIPOS>MOLECULE
*****
 30 32 0 0 0
SMALL
GASTEIGER

@<TRIPOS>ATOM
      1 C          60.1253   88.9353    8.3142 C.3     1  UNL1        0.0327
      2 C          60.9304   88.4137    9.4674 C.ar    1  UNL1       -0.0013
      3 C          61.0105   86.9371    9.7191 C.ar    1  UNL1        0.0946
      4 N          61.8155   86.4155   10.8723 N.ar    1  UNL1       -0.2425
      5 C          62.5405   87.3704   11.7737 C.ar    1  UNL1        0.1028
      6 C          63.4053   87.1521   12.9797 C.ar    1  UNL1        0.0895
      7 C          63.8597   88.4937   13.4733 C.ar    1  UNL1        0.0823
      8 N          63.2757   89.5412   12.5724 N.ar    1  UNL1       -0.3190
      9 C          62.4603   88.8469   11.5220 C.ar    1  UNL1        0.0780
     10 C          61.6553   89.3685   10.3688 C.ar    1  UNL1        0.0160
     11 C          63.7544   85.8251   13.5856 C.2     1  UNL1        0.2489
     12 O          64.8108   85.7399   14.6471 O.2     1  UNL1       -0.2700
     13 N          63.0472   84.5832   13.1301 N.am    1  UNL1       -0.2984
     14 H          62.3538   84.6390   12.4334 H       1  UNL1        0.1498
     15 C          63.3963   83.2562   13.7361 C.3     1  UNL1        0.1215
     16 C          62.4541   82.0973   13.5976 C.3     1  UNL1        0.1583
     17 O          62.1770   81.2111   14.7757 O.3     1  UNL1       -0.3802
     18 H          62.9860   80.7344   15.0190 H       1  UNL1        0.2105
     19 C          63.4725   91.0228   12.6995 C.3     1  UNL1        0.1518
     20 C          64.7849   91.6405   12.3175 C.ar    1  UNL1        0.0841
     21 N          64.9502   92.2767   10.9692 N.ar    1  UNL1       -0.2265
     22 C          66.2626   92.8944   10.5872 C.ar    1  UNL1        0.2012
     23 N          67.4098   92.8761   11.5536 N.ar    1  UNL1       -0.1895
     24 C          67.2443   92.2400   12.9019 C.ar    1  UNL1        0.2282
     25 C          65.9319   91.6222   13.2839 C.ar    1  UNL1        0.0469
     26 C          65.7667   90.9861   14.6323 C.3     1  UNL1        0.0372
     27 O          68.3915   92.2216   13.8683 O.3     1  UNL1       -0.4070
     28 C          68.2984   92.9830   15.1573 C.3     1  UNL1        0.5097
     29 F          67.3734   94.1585   15.2691 F       1  UNL1       -0.1549
     30 F          69.1303   92.5688   16.3348 F       1  UNL1       -0.1549
@<TRIPOS>BOND
     1     1     2    1
     2     2     3   ar
     3     3     4   ar
     4     4     5   ar
     5     5     6   ar
     6     6    11    1
     7    11    12    2
     8    11    13   am
     9    13    15    1
    10    15    16    1
    11    16    17    1
    12     6     7   ar
    13     7     8   ar
    14     8    19    1
    15    19    20    1
    16    20    21   ar
    17    21    22   ar
    18    22    23   ar
    19    23    24   ar
    20    24    27    1
    21    27    28    1
    22    28    29    1
    23    28    30    1
    24    24    25   ar
    25    25    26    1
    26     8     9   ar
    27     9    10   ar
    28    10     2   ar
    29     9     5   ar
    30    25    20   ar
    31    13    14    1
    32    17    18    1
