@<TRIPOS>MOLECULE
*****
 43 46 0 0 0
SMALL
GASTEIGER

@<TRIPOS>ATOM
      1 S          62.3707   89.4225   11.8132 S.3     1  UNL1       -0.1362
      2 C          62.7588   90.8185   12.2010 C.3     1  UNL1        0.0776
      3 C          64.2077   91.1921   12.3064 C.3     1  UNL1        0.0899
      4 C          65.6917   93.1994   11.5863 C.2     1  UNL1        0.4014
      5 O          65.8873   93.5714   13.0262 O.2     1  UNL1       -0.2264
      6 N          64.8520   92.0098   11.2264 N.am    1  UNL1       -0.2711
      7 H          64.7236   91.7657   10.2813 H       1  UNL1        0.1527
      8 O          66.3359   94.0171   10.5063 O.3     1  UNL1       -0.4419
      9 C          67.3067   94.5475    8.6963 C.3     1  UNL1        0.0437
     10 C          67.4564   93.4379    9.6945 C.3     1  UNL1        0.1378
     11 C          67.6060   92.3283   10.6927 C.3     1  UNL1        0.0437
     12 C          68.5768   92.8587    8.8826 C.3     1  UNL1        0.0437
     13 C          65.0125   90.7480   13.4919 C.3     1  UNL1        0.0485
     14 C          64.3195   90.3342   14.7563 C.2     1  UNL1       -0.0003
     15 C          63.7557   91.2574   15.7954 C.2     1  UNL1        0.0942
     16 N          63.1565   90.4183   16.8848 N.2     1  UNL1       -0.2482
     17 C          63.3500   88.9765   16.5190 C.2     1  UNL1        0.0631
     18 C          62.9645   87.7043   17.2137 C.3     1  UNL1        0.0717
     19 C          63.2978   86.3801   16.5930 C.2     1  UNL1       -0.0198
     20 C          64.0166   86.3281   15.2775 C.2     1  UNL1       -0.0042
     21 C          64.4021   87.6003   14.5827 C.2     1  UNL1        0.0006
     22 C          64.0688   88.9245   15.2034 C.2     1  UNL1        0.0115
     23 C          61.9402   89.1270   10.4070 C.3     1  UNL1        0.0864
     24 C          61.0568   87.9479   10.1251 C.3     1  UNL1        0.1575
     25 C          60.2163   87.9204    8.8830 C.2     1  UNL1        0.2414
     26 O          59.6298   86.6261    8.4028 O.2     1  UNL1       -0.2733
     27 N          59.9623   89.1873    8.1213 N.am    1  UNL1       -0.2990
     28 H          60.3473   90.0369    8.4365 H       1  UNL1        0.1498
     29 C          59.1218   89.1599    6.8792 C.3     1  UNL1        0.1179
     30 C          59.2236   90.2740    5.8799 C.ar    1  UNL1        0.0166
     31 C          60.5583   90.6471    5.3060 C.ar    1  UNL1        0.0005
     32 C          60.6601   91.7612    4.3068 C.ar    1  UNL1        0.0204
     33 C          59.4272   92.5021    3.8814 C.ar    1  UNL1        0.0989
     34 N          58.0925   92.1290    4.4552 N.ar    1  UNL1       -0.2426
     35 C          57.9907   91.0149    5.4545 C.ar    1  UNL1        0.0962
     36 N          61.0139   86.7963   11.0854 N.pl3   1  UNL1       -0.3263
     37 H          60.3369   86.7761   11.7998 H       1  UNL1        0.1472
     38 C          62.0025   85.6755   10.9570 C.ar    1  UNL1        0.0449
     39 C          62.5817   85.3363    9.6156 C.ar    1  UNL1        0.0143
     40 C          63.5703   84.2156    9.4872 C.ar    1  UNL1        0.0013
     41 C          63.9797   83.4340   10.7002 C.ar    1  UNL1        0.0001
     42 C          63.4005   83.7732   12.0417 C.ar    1  UNL1        0.0013
     43 C          62.4119   84.8940   12.1701 C.ar    1  UNL1        0.0143
@<TRIPOS>BOND
     1     9    10    1
     2    10    11    1
     3    10    12    1
     4    10     8    1
     5     8     4    1
     6     4     5    2
     7     4     6   am
     8     6     3    1
     9     3     2    1
    10     2     1    1
    11     1    23    1
    12    23    24    1
    13    24    36    1
    14    36    38    1
    15    38    39   ar
    16    39    40   ar
    17    40    41   ar
    18    41    42   ar
    19    42    43   ar
    20    24    25    1
    21    25    26    2
    22    25    27   am
    23    27    29    1
    24    29    30    1
    25    30    31   ar
    26    31    32   ar
    27    32    33   ar
    28    33    34   ar
    29    34    35   ar
    30     3    13    1
    31    13    14    1
    32    14    15    2
    33    15    16    1
    34    16    17    2
    35    17    18    1
    36    18    19    1
    37    19    20    2
    38    20    21    1
    39    21    22    2
    40    43    38   ar
    41    35    30   ar
    42    22    14    1
    43    22    17    1
    44     6     7    1
    45    36    37    1
    46    27    28    1
@<TRIPOS>MOLECULE
*****
 43 46 0 0 0
SMALL
GASTEIGER

@<TRIPOS>ATOM
      1 S          62.8495   90.1320   11.3728 S.3     1  UNL1       -0.1362
      2 C          63.2830   91.2899   12.2220 C.3     1  UNL1        0.0776
      3 C          64.7370   91.4896   12.5321 C.3     1  UNL1        0.0899
      4 C          66.2315   93.6037   12.3148 C.2     1  UNL1        0.4014
      5 O          66.0734   93.8663   13.7831 O.2     1  UNL1       -0.2264
      6 N          65.5633   92.4153   11.6893 N.am    1  UNL1       -0.2711
      7 H          65.6671   92.2429   10.7256 H       1  UNL1        0.1527
      8 O          67.0579   94.5293   11.4720 O.3     1  UNL1       -0.4419
      9 C          66.8947   94.4760    9.3577 C.3     1  UNL1        0.0437
     10 C          66.3979   95.3915   10.4371 C.3     1  UNL1        0.1378
     11 C          65.9011   96.3070   11.5165 C.3     1  UNL1        0.0437
     12 C          65.7380   96.2536    9.4021 C.3     1  UNL1        0.0437
     13 C          65.3646   90.7636   13.6850 C.3     1  UNL1        0.0485
     14 C          64.5337   90.3860   14.8754 C.2     1  UNL1       -0.0003
     15 C          63.8975   91.3381   15.8443 C.2     1  UNL1        0.0942
     16 N          63.1638   90.5306   16.8736 N.2     1  UNL1       -0.2482
     17 C          63.3465   89.0794   16.5409 C.2     1  UNL1        0.0631
     18 C          62.8513   87.8278   17.2029 C.3     1  UNL1        0.0717
     19 C          63.2028   86.4869   16.6299 C.2     1  UNL1       -0.0198
     20 C          64.0495   86.3976   15.3949 C.2     1  UNL1       -0.0042
     21 C          64.5447   87.6492   14.7329 C.2     1  UNL1        0.0006
     22 C          64.1932   88.9901   15.3059 C.2     1  UNL1        0.0115
     23 C          62.7568   88.7585   11.9684 C.3     1  UNL1        0.0864
     24 C          61.9033   87.7130   11.3136 C.3     1  UNL1        0.1575
     25 C          62.4874   86.3744   10.9713 C.2     1  UNL1        0.2414
     26 O          62.6792   85.9848    9.5356 O.2     1  UNL1       -0.2733
     27 N          62.8796   85.4256   12.0649 N.am    1  UNL1       -0.2990
     28 H          62.7537   85.6814   13.0072 H       1  UNL1        0.1498
     29 C          63.4637   84.0871   11.7226 C.3     1  UNL1        0.1179
     30 C          63.0240   82.8635   12.4708 C.ar    1  UNL1        0.0166
     31 C          63.0230   81.5274   11.7889 C.ar    1  UNL1        0.0005
     32 C          62.5833   80.3040   12.5370 C.ar    1  UNL1        0.0204
     33 C          62.1448   80.4165   13.9671 C.ar    1  UNL1        0.0989
     34 N          62.1459   81.7525   14.6490 N.ar    1  UNL1       -0.2426
     35 C          62.5855   82.9760   13.9008 C.ar    1  UNL1        0.0962
     36 N          60.4658   88.0062   11.0010 N.pl3   1  UNL1       -0.3263
     37 H          59.8206   88.1408   11.7323 H       1  UNL1        0.1472
     38 C          60.0114   88.0943    9.5742 C.ar    1  UNL1        0.0449
     39 C          60.1454   89.3857    8.8229 C.ar    1  UNL1        0.0143
     40 C          59.6910   89.4739    7.3961 C.ar    1  UNL1        0.0013
     41 C          59.1025   88.2708    6.7207 C.ar    1  UNL1        0.0001
     42 C          58.9685   86.9794    7.4720 C.ar    1  UNL1        0.0013
     43 C          59.4230   86.8912    8.8988 C.ar    1  UNL1        0.0143
@<TRIPOS>BOND
     1     9    10    1
     2    10    11    1
     3    10    12    1
     4    10     8    1
     5     8     4    1
     6     4     5    2
     7     4     6   am
     8     6     3    1
     9     3     2    1
    10     2     1    1
    11     1    23    1
    12    23    24    1
    13    24    36    1
    14    36    38    1
    15    38    39   ar
    16    39    40   ar
    17    40    41   ar
    18    41    42   ar
    19    42    43   ar
    20    24    25    1
    21    25    26    2
    22    25    27   am
    23    27    29    1
    24    29    30    1
    25    30    31   ar
    26    31    32   ar
    27    32    33   ar
    28    33    34   ar
    29    34    35   ar
    30     3    13    1
    31    13    14    1
    32    14    15    2
    33    15    16    1
    34    16    17    2
    35    17    18    1
    36    18    19    1
    37    19    20    2
    38    20    21    1
    39    21    22    2
    40    43    38   ar
    41    35    30   ar
    42    22    14    1
    43    22    17    1
    44     6     7    1
    45    36    37    1
    46    27    28    1
@<TRIPOS>MOLECULE
*****
 43 46 0 0 0
SMALL
GASTEIGER

@<TRIPOS>ATOM
      1 S          62.6314   90.2338   11.1165 S.3     1  UNL1       -0.1362
      2 C          63.5688   91.3822   10.8876 C.3     1  UNL1        0.0776
      3 C          64.4658   91.8503   11.9950 C.3     1  UNL1        0.0899
      4 C          66.3871   93.3251   11.0552 C.2     1  UNL1        0.4014
      5 O          66.9369   92.1395   10.3189 O.2     1  UNL1       -0.2264
      6 N          65.1515   93.1804   11.8932 N.am    1  UNL1       -0.2711
      7 H          64.7907   93.9586   12.3765 H       1  UNL1        0.1527
      8 O          67.0729   94.6553   10.9534 O.3     1  UNL1       -0.4419
      9 C          67.7393   94.8811    8.9522 C.3     1  UNL1        0.0437
     10 C          66.7420   95.5851    9.8238 C.3     1  UNL1        0.1378
     11 C          65.7448   96.2891   10.6955 C.3     1  UNL1        0.0437
     12 C          66.4113   96.5149    8.6942 C.3     1  UNL1        0.0437
     13 C          64.6769   90.9882   13.2043 C.3     1  UNL1        0.0485
     14 C          65.2760   91.5747   14.4482 C.2     1  UNL1       -0.0003
     15 C          64.5405   91.8909   15.7166 C.2     1  UNL1        0.0942
     16 N          65.5258   92.4595   16.6943 N.2     1  UNL1       -0.2482
     17 C          66.8702   92.4948   16.0301 C.2     1  UNL1        0.0631
     18 C          68.2151   92.9542   16.5099 C.3     1  UNL1        0.0717
     19 C          69.4055   92.8668   15.6016 C.2     1  UNL1       -0.0198
     20 C          69.2512   92.3199   14.2134 C.2     1  UNL1       -0.0042
     21 C          67.9064   91.8604   13.7336 C.2     1  UNL1        0.0006
     22 C          66.7159   91.9479   14.6419 C.2     1  UNL1        0.0115
     23 C          62.5600   89.1141   10.1209 C.3     1  UNL1        0.0864
     24 C          61.9966   87.7844   10.5267 C.3     1  UNL1        0.1575
     25 C          62.5413   87.0750   11.7309 C.2     1  UNL1        0.2414
     26 O          63.4122   87.8115   12.7050 O.2     1  UNL1       -0.2733
     27 N          62.2150   85.6292   11.9608 N.am    1  UNL1       -0.2990
     28 H          61.6434   85.1458   11.3214 H       1  UNL1        0.1498
     29 C          62.7597   84.9198   13.1650 C.3     1  UNL1        0.1179
     30 C          62.6993   83.4230   13.2449 C.ar    1  UNL1        0.0166
     31 C          62.8924   82.5975   12.0075 C.ar    1  UNL1        0.0005
     32 C          62.8320   81.1009   12.0874 C.ar    1  UNL1        0.0204
     33 C          62.5784   80.4298   13.4047 C.ar    1  UNL1        0.0989
     34 N          62.3852   81.2553   14.6422 N.ar    1  UNL1       -0.2426
     35 C          62.4457   82.7519   14.5622 C.ar    1  UNL1        0.0962
     36 N          60.8885   87.1642    9.7283 N.pl3   1  UNL1       -0.3263
     37 H          59.9503   87.3572    9.9556 H       1  UNL1        0.1472
     38 C          61.2099   86.2498    8.5835 C.ar    1  UNL1        0.0449
     39 C          60.1471   85.8944    7.5864 C.ar    1  UNL1        0.0143
     40 C          60.4683   84.9801    6.4415 C.ar    1  UNL1        0.0013
     41 C          61.8524   84.4211    6.2938 C.ar    1  UNL1        0.0001
     42 C          62.9152   84.7764    7.2909 C.ar    1  UNL1        0.0013
     43 C          62.5939   85.6908    8.4357 C.ar    1  UNL1        0.0143
@<TRIPOS>BOND
     1     9    10    1
     2    10    11    1
     3    10    12    1
     4    10     8    1
     5     8     4    1
     6     4     5    2
     7     4     6   am
     8     6     3    1
     9     3     2    1
    10     2     1    1
    11     1    23    1
    12    23    24    1
    13    24    36    1
    14    36    38    1
    15    38    39   ar
    16    39    40   ar
    17    40    41   ar
    18    41    42   ar
    19    42    43   ar
    20    24    25    1
    21    25    26    2
    22    25    27   am
    23    27    29    1
    24    29    30    1
    25    30    31   ar
    26    31    32   ar
    27    32    33   ar
    28    33    34   ar
    29    34    35   ar
    30     3    13    1
    31    13    14    1
    32    14    15    2
    33    15    16    1
    34    16    17    2
    35    17    18    1
    36    18    19    1
    37    19    20    2
    38    20    21    1
    39    21    22    2
    40    43    38   ar
    41    35    30   ar
    42    22    14    1
    43    22    17    1
    44     6     7    1
    45    36    37    1
    46    27    28    1
@<TRIPOS>MOLECULE
*****
 43 46 0 0 0
SMALL
GASTEIGER

@<TRIPOS>ATOM
      1 S          63.8904   87.3082   14.7377 S.3     1  UNL1       -0.1362
      2 C          64.2729   86.1198   13.9062 C.3     1  UNL1        0.0776
      3 C          63.2173   85.3463   13.1732 C.3     1  UNL1        0.0899
      4 C          62.5957   83.4009   14.7791 C.2     1  UNL1        0.4014
      5 O          62.3124   84.3915   15.8693 O.2     1  UNL1       -0.2264
      6 N          63.0481   83.8784   13.4311 N.am    1  UNL1       -0.2711
      7 H          63.2341   83.2283   12.7155 H       1  UNL1        0.1527
      8 O          62.4265   81.9330   15.0370 O.3     1  UNL1       -0.4419
      9 C          63.9063   81.0992   13.7663 C.3     1  UNL1        0.0437
     10 C          62.4174   80.9662   13.8902 C.3     1  UNL1        0.1378
     11 C          60.9284   80.8333   14.0141 C.3     1  UNL1        0.0437
     12 C          62.4084   79.9994   12.7433 C.3     1  UNL1        0.0437
     13 C          62.3309   86.0408   12.1822 C.3     1  UNL1        0.0485
     14 C          62.3557   85.6329   10.7389 C.2     1  UNL1       -0.0003
     15 C          63.3936   84.7702   10.0842 C.2     1  UNL1        0.0942
     16 N          63.0263   84.6203    8.6376 N.2     1  UNL1       -0.2482
     17 C          61.7615   85.3904    8.3982 C.2     1  UNL1        0.0631
     18 C          60.9337   85.6026    7.1655 C.3     1  UNL1        0.0717
     19 C          59.6914   86.4407    7.2315 C.2     1  UNL1       -0.0198
     20 C          59.2770   87.0665    8.5301 C.2     1  UNL1       -0.0042
     21 C          60.1048   86.8543    9.7629 C.2     1  UNL1        0.0006
     22 C          61.3471   86.0163    9.6969 C.2     1  UNL1        0.0115
     23 C          64.6220   88.6070   14.5708 C.3     1  UNL1        0.0864
     24 C          63.8665   89.8531   14.2148 C.3     1  UNL1        0.1575
     25 C          64.5718   91.1768   14.1911 C.2     1  UNL1        0.2414
     26 O          64.6576   92.0033   15.4398 O.2     1  UNL1       -0.2733
     27 N          65.1912   91.6738   12.9186 N.am    1  UNL1       -0.2990
     28 H          65.1349   91.1313   12.0990 H       1  UNL1        0.1498
     29 C          65.8964   92.9975   12.8949 C.3     1  UNL1        0.1179
     30 C          66.4987   93.5037   11.6177 C.ar    1  UNL1        0.0166
     31 C          67.2351   92.5625   10.7111 C.ar    1  UNL1        0.0005
     32 C          67.8373   93.0687    9.4340 C.ar    1  UNL1        0.0204
     33 C          67.7032   94.5160    9.0635 C.ar    1  UNL1        0.0989
     34 N          66.9669   95.4572    9.9702 N.ar    1  UNL1       -0.2426
     35 C          66.3646   94.9510   11.2472 C.ar    1  UNL1        0.0962
     36 N          62.4059   89.7754   13.8824 N.pl3   1  UNL1       -0.3263
     37 H          61.7420   89.6733   14.6022 H       1  UNL1        0.1472
     38 C          61.9567   89.8533   12.4534 C.ar    1  UNL1        0.0449
     39 C          62.9445   89.6431   11.3442 C.ar    1  UNL1        0.0143
     40 C          62.4953   89.7209    9.9152 C.ar    1  UNL1        0.0013
     41 C          61.0584   90.0089    9.5953 C.ar    1  UNL1        0.0001
     42 C          60.0707   90.2191   10.7044 C.ar    1  UNL1        0.0013
     43 C          60.5198   90.1413   12.1335 C.ar    1  UNL1        0.0143
@<TRIPOS>BOND
     1     9    10    1
     2    10    11    1
     3    10    12    1
     4    10     8    1
     5     8     4    1
     6     4     5    2
     7     4     6   am
     8     6     3    1
     9     3     2    1
    10     2     1    1
    11     1    23    1
    12    23    24    1
    13    24    36    1
    14    36    38    1
    15    38    39   ar
    16    39    40   ar
    17    40    41   ar
    18    41    42   ar
    19    42    43   ar
    20    24    25    1
    21    25    26    2
    22    25    27   am
    23    27    29    1
    24    29    30    1
    25    30    31   ar
    26    31    32   ar
    27    32    33   ar
    28    33    34   ar
    29    34    35   ar
    30     3    13    1
    31    13    14    1
    32    14    15    2
    33    15    16    1
    34    16    17    2
    35    17    18    1
    36    18    19    1
    37    19    20    2
    38    20    21    1
    39    21    22    2
    40    43    38   ar
    41    35    30   ar
    42    22    14    1
    43    22    17    1
    44     6     7    1
    45    36    37    1
    46    27    28    1
@<TRIPOS>MOLECULE
*****
 43 46 0 0 0
SMALL
GASTEIGER

@<TRIPOS>ATOM
      1 S          64.0190   87.1888   15.2787 S.3     1  UNL1       -0.1362
      2 C          64.6802   88.3628   14.6196 C.3     1  UNL1        0.0776
      3 C          64.0677   89.7276   14.7294 C.3     1  UNL1        0.0899
      4 C          62.2034   89.5713   12.9265 C.2     1  UNL1        0.4014
      5 O          63.1863   88.9768   11.9618 O.2     1  UNL1       -0.2264
      6 N          62.6442   89.9467   14.3103 N.am    1  UNL1       -0.2711
      7 H          61.9991   90.3369   14.9435 H       1  UNL1        0.1527
      8 O          60.7799   89.7904   12.5075 O.3     1  UNL1       -0.4419
      9 C          59.3836   88.6892   11.3509 C.3     1  UNL1        0.0437
     10 C          60.4100   89.7422   11.0546 C.3     1  UNL1        0.1378
     11 C          61.4363   90.7952   10.7583 C.3     1  UNL1        0.0437
     12 C          60.0399   89.6940    9.6018 C.3     1  UNL1        0.0437
     13 C          64.8787   90.8734   15.2582 C.3     1  UNL1        0.0485
     14 C          65.9923   91.4477   14.4336 C.2     1  UNL1       -0.0003
     15 C          67.4130   91.6330   14.8775 C.2     1  UNL1        0.0942
     16 N          68.1794   92.2374   13.7385 N.2     1  UNL1       -0.2482
     17 C          67.2323   92.4256   12.5906 C.2     1  UNL1        0.0631
     18 C          67.4261   92.9784   11.2098 C.3     1  UNL1        0.0717
     19 C          66.2682   93.0431   10.2585 C.2     1  UNL1       -0.0198
     20 C          64.9164   92.5550   10.6881 C.2     1  UNL1       -0.0042
     21 C          64.7226   92.0023   12.0690 C.2     1  UNL1        0.0006
     22 C          65.8806   91.9376   13.0202 C.2     1  UNL1        0.0115
     23 C          64.6132   85.8184   15.1406 C.3     1  UNL1        0.0864
     24 C          64.1098   84.8862   14.0786 C.3     1  UNL1        0.1575
     25 C          62.8742   85.2317   13.3016 C.2     1  UNL1        0.2414
     26 O          61.5233   84.8576   13.8356 O.2     1  UNL1       -0.2733
     27 N          62.9895   85.9512   11.9906 N.am    1  UNL1       -0.2990
     28 H          63.8761   86.1968   11.6401 H       1  UNL1        0.1498
     29 C          61.7538   86.2968   11.2135 C.3     1  UNL1        0.1179
     30 C          61.6559   85.9359    9.7608 C.ar    1  UNL1        0.0166
     31 C          62.8174   85.2851    9.0698 C.ar    1  UNL1        0.0005
     32 C          62.7195   84.9243    7.6172 C.ar    1  UNL1        0.0204
     33 C          61.4602   85.2141    6.8556 C.ar    1  UNL1        0.0989
     34 N          60.2987   85.8649    7.5466 N.ar    1  UNL1       -0.2426
     35 C          60.3966   86.2257    8.9992 C.ar    1  UNL1        0.0962
     36 N          64.8422   83.6085   13.7938 N.pl3   1  UNL1       -0.3263
     37 H          65.7115   83.4335   14.2214 H       1  UNL1        0.1472
     38 C          64.2501   82.5974   12.8573 C.ar    1  UNL1        0.0449
     39 C          64.4501   82.7384   11.3774 C.ar    1  UNL1        0.0143
     40 C          63.8580   81.7273   10.4408 C.ar    1  UNL1        0.0013
     41 C          63.0660   80.5752   10.9842 C.ar    1  UNL1        0.0001
     42 C          62.8660   80.4342   12.4641 C.ar    1  UNL1        0.0013
     43 C          63.4580   81.4453   13.4006 C.ar    1  UNL1        0.0143
@<TRIPOS>BOND
     1     9    10    1
     2    10    11    1
     3    10    12    1
     4    10     8    1
     5     8     4    1
     6     4     5    2
     7     4     6   am
     8     6     3    1
     9     3     2    1
    10     2     1    1
    11     1    23    1
    12    23    24    1
    13    24    36    1
    14    36    38    1
    15    38    39   ar
    16    39    40   ar
    17    40    41   ar
    18    41    42   ar
    19    42    43   ar
    20    24    25    1
    21    25    26    2
    22    25    27   am
    23    27    29    1
    24    29    30    1
    25    30    31   ar
    26    31    32   ar
    27    32    33   ar
    28    33    34   ar
    29    34    35   ar
    30     3    13    1
    31    13    14    1
    32    14    15    2
    33    15    16    1
    34    16    17    2
    35    17    18    1
    36    18    19    1
    37    19    20    2
    38    20    21    1
    39    21    22    2
    40    43    38   ar
    41    35    30   ar
    42    22    14    1
    43    22    17    1
    44     6     7    1
    45    36    37    1
    46    27    28    1
@<TRIPOS>MOLECULE
*****
 43 46 0 0 0
SMALL
GASTEIGER

@<TRIPOS>ATOM
      1 S          62.8926   89.4193   11.8410 S.3     1  UNL1       -0.1362
      2 C          63.3815   88.0232   12.0894 C.3     1  UNL1        0.0776
      3 C          62.4073   86.8834   12.1293 C.3     1  UNL1        0.0899
      4 C          61.0265   86.9979    9.9315 C.2     1  UNL1        0.4014
      5 O          62.2896   86.8755    9.1317 O.2     1  UNL1       -0.2264
      6 N          61.0854   87.0018   11.4303 N.am    1  UNL1       -0.2711
      7 H          60.2564   87.0821   11.9553 H       1  UNL1        0.1527
      8 O          59.7046   87.1163    9.2325 O.3     1  UNL1       -0.4419
      9 C          59.0870   86.9550    7.2095 C.3     1  UNL1        0.0437
     10 C          59.5423   88.0783    8.0931 C.3     1  UNL1        0.1378
     11 C          59.9976   89.2017    8.9767 C.3     1  UNL1        0.0437
     12 C          59.3799   89.0403    6.9537 C.3     1  UNL1        0.0437
     13 C          62.7549   85.6250   12.8682 C.3     1  UNL1        0.0485
     14 C          62.9765   84.3484   12.1124 C.2     1  UNL1       -0.0003
     15 C          63.5167   84.2317   10.7180 C.2     1  UNL1        0.0942
     16 N          63.5709   82.7755   10.3623 N.2     1  UNL1       -0.2482
     17 C          63.0641   81.9922   11.5368 C.2     1  UNL1        0.0631
     18 C          62.8897   80.5194   11.7612 C.3     1  UNL1        0.0717
     19 C          62.3479   80.0187   13.0672 C.2     1  UNL1       -0.0198
     20 C          61.9805   80.9908   14.1489 C.2     1  UNL1       -0.0042
     21 C          62.1550   82.4636   13.9245 C.2     1  UNL1        0.0006
     22 C          62.6967   82.9643   12.6185 C.2     1  UNL1        0.0115
     23 C          62.6446   90.3437   12.9960 C.3     1  UNL1        0.0864
     24 C          63.6943   90.5221   14.0527 C.3     1  UNL1        0.1575
     25 C          65.0250   91.1152   13.6953 C.2     1  UNL1        0.2414
     26 O          66.2315   90.8093   14.5324 O.2     1  UNL1       -0.2733
     27 N          65.1490   92.0141   12.5010 N.am    1  UNL1       -0.2990
     28 H          64.3570   92.2148   11.9516 H       1  UNL1        0.1498
     29 C          66.4796   92.6072   12.1437 C.3     1  UNL1        0.1179
     30 C          66.5639   93.6946   11.1138 C.ar    1  UNL1        0.0166
     31 C          67.1695   93.4106    9.7711 C.ar    1  UNL1        0.0005
     32 C          67.2537   94.4980    8.7414 C.ar    1  UNL1        0.0204
     33 C          66.7324   95.8693    9.0542 C.ar    1  UNL1        0.0989
     34 N          66.1268   96.1532   10.3968 N.ar    1  UNL1       -0.2426
     35 C          66.0426   95.0658   11.4266 C.ar    1  UNL1        0.0962
     36 N          63.4134   90.1074   15.4666 N.pl3   1  UNL1       -0.3263
     37 H          63.1649   90.7835   16.1377 H       1  UNL1        0.1472
     38 C          63.5109   88.6627   15.8580 C.ar    1  UNL1        0.0449
     39 C          64.4063   87.7364   15.0897 C.ar    1  UNL1        0.0143
     40 C          64.5039   86.2917   15.4810 C.ar    1  UNL1        0.0013
     41 C          63.7061   85.7732   16.6407 C.ar    1  UNL1        0.0001
     42 C          62.8107   86.6996   17.4089 C.ar    1  UNL1        0.0013
     43 C          62.7131   88.1443   17.0176 C.ar    1  UNL1        0.0143
@<TRIPOS>BOND
     1     9    10    1
     2    10    11    1
     3    10    12    1
     4    10     8    1
     5     8     4    1
     6     4     5    2
     7     4     6   am
     8     6     3    1
     9     3     2    1
    10     2     1    1
    11     1    23    1
    12    23    24    1
    13    24    36    1
    14    36    38    1
    15    38    39   ar
    16    39    40   ar
    17    40    41   ar
    18    41    42   ar
    19    42    43   ar
    20    24    25    1
    21    25    26    2
    22    25    27   am
    23    27    29    1
    24    29    30    1
    25    30    31   ar
    26    31    32   ar
    27    32    33   ar
    28    33    34   ar
    29    34    35   ar
    30     3    13    1
    31    13    14    1
    32    14    15    2
    33    15    16    1
    34    16    17    2
    35    17    18    1
    36    18    19    1
    37    19    20    2
    38    20    21    1
    39    21    22    2
    40    43    38   ar
    41    35    30   ar
    42    22    14    1
    43    22    17    1
    44     6     7    1
    45    36    37    1
    46    27    28    1
@<TRIPOS>MOLECULE
*****
 43 46 0 0 0
SMALL
GASTEIGER

@<TRIPOS>ATOM
      1 S          62.8566   90.1877   11.5819 S.3     1  UNL1       -0.1362
      2 C          62.6694   88.9964   10.6899 C.3     1  UNL1        0.0776
      3 C          62.1222   87.7177   11.2516 C.3     1  UNL1        0.0899
      4 C          62.7409   85.3751   12.1895 C.2     1  UNL1        0.4014
      5 O          61.6404   84.7593   11.3773 O.2     1  UNL1       -0.2264
      6 N          62.9818   86.8543   12.1266 N.am    1  UNL1       -0.2711
      7 H          63.7041   87.2585   12.6596 H       1  UNL1        0.1527
      8 O          63.6005   84.5117   13.0645 O.3     1  UNL1       -0.4419
      9 C          64.4098   83.0762   11.7287 C.3     1  UNL1        0.0437
     10 C          63.5320   83.0182   12.9437 C.3     1  UNL1        0.1378
     11 C          62.6543   82.9602   14.1587 C.3     1  UNL1        0.0437
     12 C          63.4636   81.5247   12.8229 C.3     1  UNL1        0.0437
     13 C          60.7152   87.3023   10.9382 C.3     1  UNL1        0.0485
     14 C          60.3565   86.8543    9.5523 C.2     1  UNL1       -0.0003
     15 C          59.0554   87.1118    8.8516 C.2     1  UNL1        0.0942
     16 N          59.1308   86.4868    7.4901 N.2     1  UNL1       -0.2482
     17 C          60.4783   85.8431    7.3494 C.2     1  UNL1        0.0631
     18 C          61.1134   85.0795    6.2253 C.3     1  UNL1        0.0717
     19 C          62.5061   84.5431    6.3758 C.2     1  UNL1       -0.0198
     20 C          63.2636   84.7703    7.6504 C.2     1  UNL1       -0.0042
     21 C          62.6285   85.5338    8.7745 C.2     1  UNL1        0.0006
     22 C          61.2359   86.0703    8.6239 C.2     1  UNL1        0.0115
     23 C          63.8372   91.2589   11.2064 C.3     1  UNL1        0.0864
     24 C          64.6399   91.9473   12.2704 C.3     1  UNL1        0.1575
     25 C          64.7458   91.3428   13.6391 C.2     1  UNL1        0.2414
     26 O          66.0911   90.9912   14.2016 O.2     1  UNL1       -0.2733
     27 N          63.5063   91.0898   14.4451 N.am    1  UNL1       -0.2990
     28 H          62.6234   91.3205   14.0758 H       1  UNL1        0.1498
     29 C          63.6123   90.4852   15.8138 C.3     1  UNL1        0.1179
     30 C          63.5941   88.9943   15.9786 C.ar    1  UNL1        0.0166
     31 C          62.9403   88.3806   17.1810 C.ar    1  UNL1        0.0005
     32 C          62.9222   86.8898   17.3458 C.ar    1  UNL1        0.0204
     33 C          63.5579   86.0127   16.3082 C.ar    1  UNL1        0.0989
     34 N          64.2117   86.6264   15.1058 N.ar    1  UNL1       -0.2426
     35 C          64.2298   88.1172   14.9410 C.ar    1  UNL1        0.0962
     36 N          65.3366   93.2403   11.9656 N.pl3   1  UNL1       -0.3263
     37 H          65.1160   94.0511   12.4786 H       1  UNL1        0.1472
     38 C          66.3693   93.2979   10.8793 C.ar    1  UNL1        0.0449
     39 C          67.3441   92.1703   10.7108 C.ar    1  UNL1        0.0143
     40 C          68.3769   92.2279    9.6245 C.ar    1  UNL1        0.0013
     41 C          68.4349   93.4129    8.7068 C.ar    1  UNL1        0.0001
     42 C          67.4601   94.5405    8.8754 C.ar    1  UNL1        0.0013
     43 C          66.4273   94.4830    9.9616 C.ar    1  UNL1        0.0143
@<TRIPOS>BOND
     1     9    10    1
     2    10    11    1
     3    10    12    1
     4    10     8    1
     5     8     4    1
     6     4     5    2
     7     4     6   am
     8     6     3    1
     9     3     2    1
    10     2     1    1
    11     1    23    1
    12    23    24    1
    13    24    36    1
    14    36    38    1
    15    38    39   ar
    16    39    40   ar
    17    40    41   ar
    18    41    42   ar
    19    42    43   ar
    20    24    25    1
    21    25    26    2
    22    25    27   am
    23    27    29    1
    24    29    30    1
    25    30    31   ar
    26    31    32   ar
    27    32    33   ar
    28    33    34   ar
    29    34    35   ar
    30     3    13    1
    31    13    14    1
    32    14    15    2
    33    15    16    1
    34    16    17    2
    35    17    18    1
    36    18    19    1
    37    19    20    2
    38    20    21    1
    39    21    22    2
    40    43    38   ar
    41    35    30   ar
    42    22    14    1
    43    22    17    1
    44     6     7    1
    45    36    37    1
    46    27    28    1
@<TRIPOS>MOLECULE
*****
 43 46 0 0 0
SMALL
GASTEIGER

@<TRIPOS>ATOM
      1 S          62.7447   89.6702   11.9459 S.3     1  UNL1       -0.1362
      2 C          63.3871   88.3169   12.0213 C.3     1  UNL1        0.0776
      3 C          62.5345   87.0835   12.0658 C.3     1  UNL1        0.0899
      4 C          61.1002   87.0996    9.8996 C.2     1  UNL1        0.4014
      5 O          62.3507   87.1325    9.0719 O.2     1  UNL1       -0.2264
      6 N          61.1921   87.0751   11.3966 N.am    1  UNL1       -0.2711
      7 H          60.3714   87.0535   11.9399 H       1  UNL1        0.1527
      8 O          59.7578   87.0912    9.2304 O.3     1  UNL1       -0.4419
      9 C          59.0850   86.8239    7.2364 C.3     1  UNL1        0.0437
     10 C          59.4930   88.0029    8.0691 C.3     1  UNL1        0.1378
     11 C          59.9010   89.1820    8.9017 C.3     1  UNL1        0.0437
     12 C          59.2283   88.9145    6.9077 C.3     1  UNL1        0.0437
     13 C          63.0244   85.8584   12.7796 C.3     1  UNL1        0.0485
     14 C          63.1209   84.5525   12.0481 C.2     1  UNL1       -0.0003
     15 C          63.5545   84.3696   10.6239 C.2     1  UNL1        0.0942
     16 N          63.5024   82.9042   10.3080 N.2     1  UNL1       -0.2482
     17 C          63.0365   82.1813   11.5371 C.2     1  UNL1        0.0631
     18 C          62.7965   80.7272   11.8158 C.3     1  UNL1        0.0717
     19 C          62.3208   80.2917   13.1701 C.2     1  UNL1       -0.0198
     20 C          62.0850   81.3105   14.2455 C.2     1  UNL1       -0.0042
     21 C          62.3250   82.7646   13.9668 C.2     1  UNL1        0.0006
     22 C          62.8007   83.2001   12.6125 C.2     1  UNL1        0.0115
     23 C          63.5632   90.8688   11.5671 C.3     1  UNL1        0.0864
     24 C          64.3497   91.6011   12.6137 C.3     1  UNL1        0.1575
     25 C          64.5076   91.0103   13.9834 C.2     1  UNL1        0.2414
     26 O          65.8783   90.7689   14.5426 O.2     1  UNL1       -0.2733
     27 N          63.2947   90.6610   14.7938 N.am    1  UNL1       -0.2990
     28 H          62.3950   90.8195   14.4267 H       1  UNL1        0.1498
     29 C          63.4525   90.0703   16.1635 C.3     1  UNL1        0.1179
     30 C          63.4522   88.5809   16.3425 C.ar    1  UNL1        0.0166
     31 C          62.7036   87.9632   17.4862 C.ar    1  UNL1        0.0005
     32 C          62.7033   86.4739   17.6652 C.ar    1  UNL1        0.0204
     33 C          63.4515   85.6024   16.7005 C.ar    1  UNL1        0.0989
     34 N          64.2000   86.2201   15.5568 N.ar    1  UNL1       -0.2426
     35 C          64.2004   87.7093   15.3778 C.ar    1  UNL1        0.0962
     36 N          64.9782   92.9242   12.2905 N.pl3   1  UNL1       -0.3263
     37 H          64.6757   93.7389   12.7531 H       1  UNL1        0.1472
     38 C          66.0676   93.0060   11.2627 C.ar    1  UNL1        0.0449
     39 C          67.1994   92.0220   11.2896 C.ar    1  UNL1        0.0143
     40 C          68.2889   92.1037   10.2618 C.ar    1  UNL1        0.0013
     41 C          68.2465   93.1694    9.2071 C.ar    1  UNL1        0.0001
     42 C          67.1146   94.1534    9.1801 C.ar    1  UNL1        0.0013
     43 C          66.0252   94.0717   10.2079 C.ar    1  UNL1        0.0143
@<TRIPOS>BOND
     1     9    10    1
     2    10    11    1
     3    10    12    1
     4    10     8    1
     5     8     4    1
     6     4     5    2
     7     4     6   am
     8     6     3    1
     9     3     2    1
    10     2     1    1
    11     1    23    1
    12    23    24    1
    13    24    36    1
    14    36    38    1
    15    38    39   ar
    16    39    40   ar
    17    40    41   ar
    18    41    42   ar
    19    42    43   ar
    20    24    25    1
    21    25    26    2
    22    25    27   am
    23    27    29    1
    24    29    30    1
    25    30    31   ar
    26    31    32   ar
    27    32    33   ar
    28    33    34   ar
    29    34    35   ar
    30     3    13    1
    31    13    14    1
    32    14    15    2
    33    15    16    1
    34    16    17    2
    35    17    18    1
    36    18    19    1
    37    19    20    2
    38    20    21    1
    39    21    22    2
    40    43    38   ar
    41    35    30   ar
    42    22    14    1
    43    22    17    1
    44     6     7    1
    45    36    37    1
    46    27    28    1
@<TRIPOS>MOLECULE
*****
 43 46 0 0 0
SMALL
GASTEIGER

@<TRIPOS>ATOM
      1 S          63.2272   89.5092   11.9578 S.3     1  UNL1       -0.1362
      2 C          63.0376   88.0258   12.0746 C.3     1  UNL1        0.0776
      3 C          61.8354   87.3727   11.4595 C.3     1  UNL1        0.0899
      4 C          62.3992   84.9578   12.2342 C.2     1  UNL1        0.4014
      5 O          63.8608   85.2396   12.0489 O.2     1  UNL1       -0.2264
      6 N          61.3866   86.0244   11.9395 N.am    1  UNL1       -0.2711
      7 H          60.4273   85.8394   12.0611 H       1  UNL1        0.1527
      8 O          61.9503   83.6094   12.7142 O.3     1  UNL1       -0.4419
      9 C          62.9804   82.8767   14.4178 C.3     1  UNL1        0.0437
     10 C          62.9590   82.5266   12.9594 C.3     1  UNL1        0.1378
     11 C          62.9376   82.1765   11.5010 C.3     1  UNL1        0.0437
     12 C          63.9676   81.4438   13.2046 C.3     1  UNL1        0.0437
     13 C          61.0821   88.0681   10.3644 C.3     1  UNL1        0.0485
     14 C          60.5645   87.2839    9.1952 C.2     1  UNL1       -0.0003
     15 C          59.1795   87.3624    8.6245 C.2     1  UNL1        0.0942
     16 N          59.1001   86.4105    7.4680 N.2     1  UNL1       -0.2482
     17 C          60.4360   85.7436    7.3239 C.2     1  UNL1        0.0631
     18 C          60.9452   84.7146    6.3587 C.3     1  UNL1        0.0717
     19 C          62.3594   84.2254    6.4609 C.2     1  UNL1       -0.0198
     20 C          63.2645   84.7651    7.5283 C.2     1  UNL1       -0.0042
     21 C          62.7553   85.7941    8.4936 C.2     1  UNL1        0.0006
     22 C          61.3410   86.2834    8.3914 C.2     1  UNL1        0.0115
     23 C          62.8551   90.4051   13.1018 C.3     1  UNL1        0.0864
     24 C          63.8177   90.6167   14.2327 C.3     1  UNL1        0.1575
     25 C          65.1221   91.3154   13.9864 C.2     1  UNL1        0.2414
     26 O          66.3058   91.0237   14.8604 O.2     1  UNL1       -0.2733
     27 N          65.2426   92.3056   12.8663 N.am    1  UNL1       -0.2990
     28 H          64.4657   92.4970   12.2927 H       1  UNL1        0.1498
     29 C          66.5470   93.0042   12.6200 C.3     1  UNL1        0.1179
     30 C          66.9328   93.4031   11.2264 C.ar    1  UNL1        0.0166
     31 C          67.7512   92.4739   10.3797 C.ar    1  UNL1        0.0005
     32 C          68.1370   92.8728    8.9862 C.ar    1  UNL1        0.0204
     33 C          67.7044   94.2009    8.4393 C.ar    1  UNL1        0.0989
     34 N          66.8860   95.1301    9.2859 N.ar    1  UNL1       -0.2426
     35 C          66.5002   94.7311   10.6795 C.ar    1  UNL1        0.0962
     36 N          63.4760   90.1297   15.6096 N.pl3   1  UNL1       -0.3263
     37 H          63.2151   90.7723   16.3084 H       1  UNL1        0.1472
     38 C          63.5317   88.6637   15.9220 C.ar    1  UNL1        0.0449
     39 C          62.8179   88.1259   17.1267 C.ar    1  UNL1        0.0143
     40 C          62.8736   86.6599   17.4391 C.ar    1  UNL1        0.0013
     41 C          63.6431   85.7316   16.5469 C.ar    1  UNL1        0.0001
     42 C          64.3569   86.2694   15.3422 C.ar    1  UNL1        0.0013
     43 C          64.3012   87.7354   15.0297 C.ar    1  UNL1        0.0143
@<TRIPOS>BOND
     1     9    10    1
     2    10    11    1
     3    10    12    1
     4    10     8    1
     5     8     4    1
     6     4     5    2
     7     4     6   am
     8     6     3    1
     9     3     2    1
    10     2     1    1
    11     1    23    1
    12    23    24    1
    13    24    36    1
    14    36    38    1
    15    38    39   ar
    16    39    40   ar
    17    40    41   ar
    18    41    42   ar
    19    42    43   ar
    20    24    25    1
    21    25    26    2
    22    25    27   am
    23    27    29    1
    24    29    30    1
    25    30    31   ar
    26    31    32   ar
    27    32    33   ar
    28    33    34   ar
    29    34    35   ar
    30     3    13    1
    31    13    14    1
    32    14    15    2
    33    15    16    1
    34    16    17    2
    35    17    18    1
    36    18    19    1
    37    19    20    2
    38    20    21    1
    39    21    22    2
    40    43    38   ar
    41    35    30   ar
    42    22    14    1
    43    22    17    1
    44     6     7    1
    45    36    37    1
    46    27    28    1
