@<TRIPOS>MOLECULE
*****
 31 32 0 0 0
SMALL
GASTEIGER

@<TRIPOS>ATOM
      1 N          60.5729   88.0441    9.5028 N.3     1  UNL1       -0.2699
      2 C          59.1832   86.8033    7.6920 C.3     1  UNL1        0.0188
      3 C          59.6570   88.0826    8.3157 C.3     1  UNL1        0.0722
      4 C          60.6790   86.7960   10.3281 C.3     1  UNL1        0.0920
      5 C          61.9098   85.9429   10.2429 C.3     1  UNL1        0.0907
      6 C          62.6057   85.7597    8.9268 C.3     1  UNL1        0.0228
      7 N          62.4448   85.2730   11.4738 N.am    1  UNL1       -0.2709
      8 C          63.0790   86.0927   12.5581 C.2     1  UNL1        0.4020
      9 O          63.1782   87.5822   12.4117 O.2     1  UNL1       -0.2264
     10 H          62.3796   84.2954   11.5699 H       1  UNL1        0.1527
     11 O          63.6140   85.4228   13.7891 O.3     1  UNL1       -0.4274
     12 C          64.3081   84.0976   13.6803 C.3     1  UNL1        0.2621
     13 C          63.5087   82.8285   13.6981 C.ar    1  UNL1        0.1323
     14 N          63.8916   81.5360   13.0402 N.ar    1  UNL1       -0.2374
     15 C          62.8056   80.5378   13.3125 C.ar    1  UNL1        0.1062
     16 C          61.7516   81.2134   14.1387 C.ar    1  UNL1        0.0573
     17 S          62.1861   82.6291   14.3771 S.2     1  UNL1       -0.0666
     18 C          61.3828   89.2537    9.8648 C.3     1  UNL1        0.0920
     19 C          61.0186   90.0665   11.0718 C.3     1  UNL1        0.0907
     20 C          59.6078   90.5400   11.2592 C.3     1  UNL1        0.0228
     21 N          62.0653   90.4057   12.0912 N.am    1  UNL1       -0.2709
     22 C          63.2783   91.1908   11.6882 C.2     1  UNL1        0.4020
     23 O          63.4444   91.6367   10.2658 O.2     1  UNL1       -0.2264
     24 H          61.9562   90.1130   13.0249 H       1  UNL1        0.1527
     25 O          64.3250   91.5300   12.7077 O.3     1  UNL1       -0.4291
     26 C          65.5452   92.3020   12.3015 C.3     1  UNL1        0.2447
     27 C          66.6448   92.5428   13.2929 C.ar    1  UNL1        0.0714
     28 C          68.0114   91.9252   13.2612 C.ar    1  UNL1        0.1053
     29 N          68.7821   92.4442   14.4387 N.ar    1  UNL1       -0.2350
     30 C          67.8918   93.3825   15.1982 C.ar    1  UNL1        0.1343
     31 S          66.5709   93.4435   14.4900 S.2     1  UNL1       -0.0652
@<TRIPOS>BOND
     1     2     3    1
     2     3     1    1
     3     1     4    1
     4     4     5    1
     5     5     6    1
     6     5     7    1
     7     7     8   am
     8     8     9    2
     9     8    11    1
    10    11    12    1
    11    12    13    1
    12    13    14   ar
    13    14    15   ar
    14    15    16   ar
    15    16    17   ar
    16     1    18    1
    17    18    19    1
    18    19    20    1
    19    19    21    1
    20    21    22   am
    21    22    23    2
    22    22    25    1
    23    25    26    1
    24    26    27    1
    25    27    28   ar
    26    28    29   ar
    27    29    30   ar
    28    30    31   ar
    29    17    13   ar
    30    31    27   ar
    31     7    10    1
    32    21    24    1
@<TRIPOS>MOLECULE
*****
 31 32 0 0 0
SMALL
GASTEIGER

@<TRIPOS>ATOM
      1 N          60.7302   88.0080    9.4642 N.3     1  UNL1       -0.2699
      2 C          59.0563   86.9712    7.7693 C.3     1  UNL1        0.0188
      3 C          59.8478   88.1473    8.2593 C.3     1  UNL1        0.0722
      4 C          61.5908   89.1566    9.9005 C.3     1  UNL1        0.0920
      5 C          61.1537   90.0315   11.0378 C.3     1  UNL1        0.0907
      6 C          59.7328   90.5057   11.1161 C.3     1  UNL1        0.0228
      7 N          62.1375   90.4322   12.0968 N.am    1  UNL1       -0.2709
      8 C          63.3223   91.2792   11.7379 C.2     1  UNL1        0.4020
      9 O          63.5232   91.7256   10.3200 O.2     1  UNL1       -0.2264
     10 H          62.0057   90.1393   13.0274 H       1  UNL1        0.1527
     11 O          64.3062   91.6800   12.7968 O.3     1  UNL1       -0.4274
     12 C          65.5724   92.3877   12.4150 C.3     1  UNL1        0.2621
     13 C          66.6576   92.5843   13.4318 C.ar    1  UNL1        0.1323
     14 N          68.0138   91.9439   13.4089 N.ar    1  UNL1       -0.2374
     15 C          68.7714   92.4197   14.6129 C.ar    1  UNL1        0.1062
     16 C          67.8834   93.3542   15.3799 C.ar    1  UNL1        0.0573
     17 S          66.5770   93.4559   14.6499 S.2     1  UNL1       -0.0666
     18 C          60.7521   86.7200   10.2329 C.3     1  UNL1        0.0920
     19 C          61.9769   85.8543   10.2109 C.3     1  UNL1        0.0907
     20 C          62.7302   85.6531    8.9295 C.3     1  UNL1        0.0228
     21 N          62.4482   85.1897   11.4703 N.am    1  UNL1       -0.2709
     22 C          63.0515   86.0108   12.5711 C.2     1  UNL1        0.4020
     23 O          63.1835   87.4965   12.4124 O.2     1  UNL1       -0.2264
     24 H          62.3616   84.2145   11.5745 H       1  UNL1        0.1527
     25 O          63.5229   85.3462   13.8305 O.3     1  UNL1       -0.4291
     26 C          64.1802   83.9994   13.7670 C.3     1  UNL1        0.2447
     27 C          63.3427   82.7550   13.7741 C.ar    1  UNL1        0.0714
     28 C          62.0560   82.5625   14.5207 C.ar    1  UNL1        0.1053
     29 N          61.5629   81.1732   14.2439 N.ar    1  UNL1       -0.2350
     30 C          62.5447   80.5071   13.3262 C.ar    1  UNL1        0.1343
     31 S          63.6447   81.4847   13.0359 S.2     1  UNL1       -0.0652
@<TRIPOS>BOND
     1     2     3    1
     2     3     1    1
     3     1     4    1
     4     4     5    1
     5     5     6    1
     6     5     7    1
     7     7     8   am
     8     8     9    2
     9     8    11    1
    10    11    12    1
    11    12    13    1
    12    13    14   ar
    13    14    15   ar
    14    15    16   ar
    15    16    17   ar
    16     1    18    1
    17    18    19    1
    18    19    20    1
    19    19    21    1
    20    21    22   am
    21    22    23    2
    22    22    25    1
    23    25    26    1
    24    26    27    1
    25    27    28   ar
    26    28    29   ar
    27    29    30   ar
    28    30    31   ar
    29    17    13   ar
    30    31    27   ar
    31     7    10    1
    32    21    24    1
@<TRIPOS>MOLECULE
*****
 31 32 0 0 0
SMALL
GASTEIGER

@<TRIPOS>ATOM
      1 N          60.3859   88.2398    9.2900 N.3     1  UNL1       -0.2699
      2 C          58.9902   86.7423    7.6902 C.3     1  UNL1        0.0188
      3 C          59.6545   88.0524    7.9939 C.3     1  UNL1        0.0722
      4 C          60.5033   87.0989   10.2568 C.3     1  UNL1        0.0920
      5 C          61.6943   86.1888   10.2018 C.3     1  UNL1        0.0907
      6 C          62.4633   86.0363    8.9229 C.3     1  UNL1        0.0228
      7 N          62.1165   85.4311   11.4256 N.am    1  UNL1       -0.2709
      8 C          62.8648   86.1319   12.5205 C.2     1  UNL1        0.4020
      9 O          63.1911   87.5903   12.3916 O.2     1  UNL1       -0.2264
     10 H          61.9023   84.4739   11.5102 H       1  UNL1        0.1527
     11 O          63.2870   85.3743   13.7444 O.3     1  UNL1       -0.4274
     12 C          64.1199   84.1343   13.6088 C.3     1  UNL1        0.2621
     13 C          63.4562   82.7947   13.4855 C.ar    1  UNL1        0.1323
     14 N          62.6166   82.1270   14.5340 N.ar    1  UNL1       -0.2374
     15 C          62.1572   80.8074   13.9886 C.ar    1  UNL1        0.1062
     16 C          62.7128   80.6595   12.6032 C.ar    1  UNL1        0.0573
     17 S          63.5157   81.8878   12.2923 S.2     1  UNL1       -0.0666
     18 C          60.9999   89.5682    9.6194 C.3     1  UNL1        0.0920
     19 C          60.8540   90.1407   10.9982 C.3     1  UNL1        0.0907
     20 C          59.5105   90.6010   11.4808 C.3     1  UNL1        0.0228
     21 N          62.0517   90.2528   11.8943 N.am    1  UNL1       -0.2709
     22 C          63.2646   91.0060   11.4345 C.2     1  UNL1        0.4020
     23 O          63.2797   91.6472   10.0785 O.2     1  UNL1       -0.2264
     24 H          62.0417   89.8320   12.7843 H       1  UNL1        0.1527
     25 O          64.4623   91.1181   12.3306 O.3     1  UNL1       -0.4291
     26 C          65.1098   92.4527   12.5534 C.3     1  UNL1        0.2447
     27 C          66.0392   93.0172   11.5201 C.ar    1  UNL1        0.0714
     28 C          67.3144   92.3877   11.0432 C.ar    1  UNL1        0.1053
     29 N          67.9198   93.2918   10.0106 N.ar    1  UNL1       -0.2350
     30 C          67.0187   94.4800    9.8494 C.ar    1  UNL1        0.1343
     31 S          65.8564   94.3103   10.7823 S.2     1  UNL1       -0.0652
@<TRIPOS>BOND
     1     2     3    1
     2     3     1    1
     3     1     4    1
     4     4     5    1
     5     5     6    1
     6     5     7    1
     7     7     8   am
     8     8     9    2
     9     8    11    1
    10    11    12    1
    11    12    13    1
    12    13    14   ar
    13    14    15   ar
    14    15    16   ar
    15    16    17   ar
    16     1    18    1
    17    18    19    1
    18    19    20    1
    19    19    21    1
    20    21    22   am
    21    22    23    2
    22    22    25    1
    23    25    26    1
    24    26    27    1
    25    27    28   ar
    26    28    29   ar
    27    29    30   ar
    28    30    31   ar
    29    17    13   ar
    30    31    27   ar
    31     7    10    1
    32    21    24    1
@<TRIPOS>MOLECULE
*****
 31 32 0 0 0
SMALL
GASTEIGER

@<TRIPOS>ATOM
      1 N          61.4044   87.5547   10.1019 N.3     1  UNL1       -0.2699
      2 C          59.6975   87.8797    8.1704 C.3     1  UNL1        0.0188
      3 C          60.2299   87.0621    9.3097 C.3     1  UNL1        0.0722
      4 C          62.2567   86.5828   10.8628 C.3     1  UNL1        0.0920
      5 C          62.5634   85.2361   10.2777 C.3     1  UNL1        0.0907
      6 C          63.0283   85.1243    8.8559 C.3     1  UNL1        0.0228
      7 N          62.4052   84.0012   11.1143 N.am    1  UNL1       -0.2709
      8 C          63.5324   83.0172   11.2196 C.2     1  UNL1        0.4020
      9 O          64.8178   83.2681   10.4883 O.2     1  UNL1       -0.2264
     10 H          61.5615   83.8365   11.5942 H       1  UNL1        0.1527
     11 O          63.3743   81.7822   12.0562 O.3     1  UNL1       -0.4274
     12 C          63.8120   81.7870   13.4909 C.3     1  UNL1        0.2621
     13 C          63.6146   83.0137   14.3312 C.ar    1  UNL1        0.1323
     14 N          62.4174   83.3155   15.1831 N.ar    1  UNL1       -0.2374
     15 C          62.6426   84.6424   15.8455 C.ar    1  UNL1        0.1062
     16 C          63.9789   85.1606   15.4031 C.ar    1  UNL1        0.0573
     17 S          64.5796   84.1540   14.4671 S.2     1  UNL1       -0.0666
     18 C          61.7267   89.0194   10.1332 C.3     1  UNL1        0.0920
     19 C          61.3081   89.8545   11.3068 C.3     1  UNL1        0.0907
     20 C          59.9406   89.6838   11.8990 C.3     1  UNL1        0.0228
     21 N          62.2570   90.8603   11.8882 N.am    1  UNL1       -0.2709
     22 C          63.3194   90.4199   12.8512 C.2     1  UNL1        0.4020
     23 O          63.4328   88.9737   13.2328 O.2     1  UNL1       -0.2264
     24 H          62.1825   91.8095   11.6377 H       1  UNL1        0.1527
     25 O          64.2683   91.4256   13.4326 O.3     1  UNL1       -0.4291
     26 C          65.2327   91.0141   14.5053 C.3     1  UNL1        0.2447
     27 C          66.4782   91.8159   14.7418 C.ar    1  UNL1        0.0714
     28 C          67.6810   91.8609   13.8467 C.ar    1  UNL1        0.1053
     29 N          68.6857   92.7862   14.4665 N.ar    1  UNL1       -0.2350
     30 C          68.1039   93.3131   15.7448 C.ar    1  UNL1        0.1343
     31 S          66.7396   92.7134   15.9148 S.2     1  UNL1       -0.0652
@<TRIPOS>BOND
     1     2     3    1
     2     3     1    1
     3     1     4    1
     4     4     5    1
     5     5     6    1
     6     5     7    1
     7     7     8   am
     8     8     9    2
     9     8    11    1
    10    11    12    1
    11    12    13    1
    12    13    14   ar
    13    14    15   ar
    14    15    16   ar
    15    16    17   ar
    16     1    18    1
    17    18    19    1
    18    19    20    1
    19    19    21    1
    20    21    22   am
    21    22    23    2
    22    22    25    1
    23    25    26    1
    24    26    27    1
    25    27    28   ar
    26    28    29   ar
    27    29    30   ar
    28    30    31   ar
    29    17    13   ar
    30    31    27   ar
    31     7    10    1
    32    21    24    1
@<TRIPOS>MOLECULE
*****
 31 32 0 0 0
SMALL
GASTEIGER

@<TRIPOS>ATOM
      1 N          61.1255   88.8180   10.4059 N.3     1  UNL1       -0.2699
      2 C          59.2747   89.0002   12.2200 C.3     1  UNL1        0.0188
      3 C          59.9226   88.2469   11.0963 C.3     1  UNL1        0.0722
      4 C          61.3409   90.3022   10.3792 C.3     1  UNL1        0.0920
      5 C          62.5654   90.8938   11.0122 C.3     1  UNL1        0.0907
      6 C          63.7285   91.3023   10.1576 C.3     1  UNL1        0.0228
      7 N          62.6267   91.0769   12.4997 N.am    1  UNL1       -0.2709
      8 C          63.1253   89.9635   13.3724 C.2     1  UNL1        0.4020
      9 O          63.5626   88.6671   12.7577 O.2     1  UNL1       -0.2264
     10 H          62.3397   91.9279   12.9032 H       1  UNL1        0.1527
     11 O          63.1867   90.1466   14.8600 O.3     1  UNL1       -0.4274
     12 C          64.2239   91.0470   15.4628 C.3     1  UNL1        0.2621
     13 C          65.3372   91.5833   14.6124 C.ar    1  UNL1        0.1323
     14 N          65.1796   92.4391   13.3906 N.ar    1  UNL1       -0.2374
     15 C          66.5485   92.7426   12.8577 C.ar    1  UNL1        0.1062
     16 C          67.5521   92.0744   13.7501 C.ar    1  UNL1        0.0573
     17 S          66.8034   91.3579   14.8346 S.2     1  UNL1       -0.0666
     18 C          62.1132   87.9047    9.7421 C.3     1  UNL1        0.0920
     19 C          61.7023   86.5182    9.3435 C.3     1  UNL1        0.0907
     20 C          60.5168   86.3159    8.4470 C.3     1  UNL1        0.0228
     21 N          62.4770   85.3341    9.8413 N.am    1  UNL1       -0.2709
     22 C          62.4606   84.9868   11.3005 C.2     1  UNL1        0.4020
     23 O          61.6695   85.8236   12.2617 O.2     1  UNL1       -0.2264
     24 H          62.9961   84.7849    9.2104 H       1  UNL1        0.1527
     25 O          63.2352   83.8027   11.7983 O.3     1  UNL1       -0.4291
     26 C          64.2040   83.9632   12.9322 C.3     1  UNL1        0.2447
     27 C          63.7491   84.5678   14.2274 C.ar    1  UNL1        0.0714
     28 C          62.5597   84.1354   15.0326 C.ar    1  UNL1        0.1053
     29 N          62.4793   85.0113   16.2476 N.ar    1  UNL1       -0.2350
     30 C          63.6189   85.9851   16.1933 C.ar    1  UNL1        0.1343
     31 S          64.4037   85.7109   14.9447 S.2     1  UNL1       -0.0652
@<TRIPOS>BOND
     1     2     3    1
     2     3     1    1
     3     1     4    1
     4     4     5    1
     5     5     6    1
     6     5     7    1
     7     7     8   am
     8     8     9    2
     9     8    11    1
    10    11    12    1
    11    12    13    1
    12    13    14   ar
    13    14    15   ar
    14    15    16   ar
    15    16    17   ar
    16     1    18    1
    17    18    19    1
    18    19    20    1
    19    19    21    1
    20    21    22   am
    21    22    23    2
    22    22    25    1
    23    25    26    1
    24    26    27    1
    25    27    28   ar
    26    28    29   ar
    27    29    30   ar
    28    30    31   ar
    29    17    13   ar
    30    31    27   ar
    31     7    10    1
    32    21    24    1
@<TRIPOS>MOLECULE
*****
 31 32 0 0 0
SMALL
GASTEIGER

@<TRIPOS>ATOM
      1 N          62.2095   89.0190   11.7682 N.3     1  UNL1       -0.2699
      2 C          60.1090   90.3061   10.9430 C.3     1  UNL1        0.0188
      3 C          61.0286   89.8980   12.0555 C.3     1  UNL1        0.0722
      4 C          63.3700   88.9877   12.7181 C.3     1  UNL1        0.0920
      5 C          63.6882   90.1922   13.5535 C.3     1  UNL1        0.0907
      6 C          63.5275   90.1350   15.0437 C.3     1  UNL1        0.0228
      7 N          64.1670   91.4539   12.8986 N.am    1  UNL1       -0.2709
      8 C          65.5449   91.9719   13.1865 C.2     1  UNL1        0.4020
      9 O          66.4440   91.2284   14.1292 O.2     1  UNL1       -0.2264
     10 H          63.5769   91.9419   12.2799 H       1  UNL1        0.1527
     11 O          66.0238   93.2337   12.5317 O.3     1  UNL1       -0.4274
     12 C          66.5004   93.2065   11.1097 C.3     1  UNL1        0.2621
     13 C          66.7706   94.4915   10.3846 C.ar    1  UNL1        0.1323
     14 N          66.5209   95.8723   10.9146 N.ar    1  UNL1       -0.2374
     15 C          66.9339   96.8554    9.8597 C.ar    1  UNL1        0.1062
     16 C          67.4390   96.0822    8.6777 C.ar    1  UNL1        0.0573
     17 S          67.3381   94.6212    9.0021 S.2     1  UNL1       -0.0666
     18 C          62.2300   88.1712   10.5308 C.3     1  UNL1        0.0920
     19 C          61.4744   86.8759   10.4966 C.3     1  UNL1        0.0907
     20 C          60.4408   86.6385    9.4358 C.3     1  UNL1        0.0228
     21 N          61.7523   85.8181   11.5231 N.am    1  UNL1       -0.2709
     22 C          62.6389   84.6571   11.1826 C.2     1  UNL1        0.4020
     23 O          63.2475   84.5539    9.8155 O.2     1  UNL1       -0.2264
     24 H          61.3529   85.8858   12.4204 H       1  UNL1        0.1527
     25 O          62.9169   83.5993   12.2091 O.3     1  UNL1       -0.4291
     26 C          63.9484   83.8380   13.2717 C.3     1  UNL1        0.2447
     27 C          63.6086   84.6685   14.4737 C.ar    1  UNL1        0.0714
     28 C          64.1979   86.0044   14.8176 C.ar    1  UNL1        0.1053
     29 N          63.5732   86.4704   16.0992 N.ar    1  UNL1       -0.2350
     30 C          62.5979   85.4226   16.5474 C.ar    1  UNL1        0.1343
     31 S          62.6198   84.3090   15.5427 S.2     1  UNL1       -0.0652
@<TRIPOS>BOND
     1     2     3    1
     2     3     1    1
     3     1     4    1
     4     4     5    1
     5     5     6    1
     6     5     7    1
     7     7     8   am
     8     8     9    2
     9     8    11    1
    10    11    12    1
    11    12    13    1
    12    13    14   ar
    13    14    15   ar
    14    15    16   ar
    15    16    17   ar
    16     1    18    1
    17    18    19    1
    18    19    20    1
    19    19    21    1
    20    21    22   am
    21    22    23    2
    22    22    25    1
    23    25    26    1
    24    26    27    1
    25    27    28   ar
    26    28    29   ar
    27    29    30   ar
    28    30    31   ar
    29    17    13   ar
    30    31    27   ar
    31     7    10    1
    32    21    24    1
@<TRIPOS>MOLECULE
*****
 31 32 0 0 0
SMALL
GASTEIGER

@<TRIPOS>ATOM
      1 N          61.5656   89.9375   10.1422 N.3     1  UNL1       -0.2699
      2 C          59.6989   90.0406   11.9464 C.3     1  UNL1        0.0188
      3 C          60.1394   90.2049   10.5219 C.3     1  UNL1        0.0722
      4 C          62.5830   91.0365   10.2269 C.3     1  UNL1        0.0920
      5 C          63.6077   91.0271   11.3223 C.3     1  UNL1        0.0907
      6 C          63.4604   90.0836   12.4790 C.3     1  UNL1        0.0228
      7 N          64.7796   91.9614   11.2610 N.am    1  UNL1       -0.2709
      8 C          65.3600   92.5203   12.5262 C.2     1  UNL1        0.4020
      9 O          64.7685   92.1451   13.8526 O.2     1  UNL1       -0.2264
     10 H          65.1679   92.2076   10.3905 H       1  UNL1        0.1527
     11 O          66.5320   93.4546   12.4650 O.3     1  UNL1       -0.4274
     12 C          66.3519   94.8510   11.9478 C.3     1  UNL1        0.2621
     13 C          66.6233   95.1572   10.5047 C.ar    1  UNL1        0.1323
     14 N          66.2537   96.4214    9.7869 N.ar    1  UNL1       -0.2374
     15 C          66.7140   96.2983    8.3646 C.ar    1  UNL1        0.1062
     16 C          67.3681   94.9581    8.2033 C.ar    1  UNL1        0.0573
     17 S          67.3121   94.2528    9.5260 S.2     1  UNL1       -0.0666
     18 C          61.9745   88.5710    9.6778 C.3     1  UNL1        0.0920
     19 C          61.1473   87.3750   10.0461 C.3     1  UNL1        0.0907
     20 C          60.2273   86.7591    9.0341 C.3     1  UNL1        0.0228
     21 N          61.2403   86.7951   11.4263 N.am    1  UNL1       -0.2709
     22 C          62.0995   85.5916   11.6779 C.2     1  UNL1        0.4020
     23 O          62.8657   84.9680   10.5492 O.2     1  UNL1       -0.2264
     24 H          60.7373   87.2044   12.1671 H       1  UNL1        0.1527
     25 O          62.1924   85.0116   13.0581 O.3     1  UNL1       -0.4291
     26 C          63.2225   83.9649   13.3640 C.3     1  UNL1        0.2447
     27 C          62.8927   82.5129   13.1832 C.ar    1  UNL1        0.0714
     28 C          63.2250   81.6760   11.9835 C.ar    1  UNL1        0.1053
     29 N          62.7104   80.2886   12.2292 N.ar    1  UNL1       -0.2350
     30 C          62.0600   80.2680   13.5807 C.ar    1  UNL1        0.1343
     31 S          62.1727   81.6427   14.1703 S.2     1  UNL1       -0.0652
@<TRIPOS>BOND
     1     2     3    1
     2     3     1    1
     3     1     4    1
     4     4     5    1
     5     5     6    1
     6     5     7    1
     7     7     8   am
     8     8     9    2
     9     8    11    1
    10    11    12    1
    11    12    13    1
    12    13    14   ar
    13    14    15   ar
    14    15    16   ar
    15    16    17   ar
    16     1    18    1
    17    18    19    1
    18    19    20    1
    19    19    21    1
    20    21    22   am
    21    22    23    2
    22    22    25    1
    23    25    26    1
    24    26    27    1
    25    27    28   ar
    26    28    29   ar
    27    29    30   ar
    28    30    31   ar
    29    17    13   ar
    30    31    27   ar
    31     7    10    1
    32    21    24    1
@<TRIPOS>MOLECULE
*****
 31 32 0 0 0
SMALL
GASTEIGER

@<TRIPOS>ATOM
      1 N          60.7462   87.6565    9.9685 N.3     1  UNL1       -0.2699
      2 C          59.5974   88.5487    7.8158 C.3     1  UNL1        0.0188
      3 C          59.8079   87.4513    8.8164 C.3     1  UNL1        0.0722
      4 C          60.9806   86.5481   10.9515 C.3     1  UNL1        0.0920
      5 C          62.2630   85.7710   10.9139 C.3     1  UNL1        0.0907
      6 C          62.7557   85.1992    9.6176 C.3     1  UNL1        0.0228
      7 N          63.0528   85.5656   12.1724 N.am    1  UNL1       -0.2709
      8 C          63.1470   84.1993   12.7842 C.2     1  UNL1        0.4020
      9 O          62.4513   83.0384   12.1374 O.2     1  UNL1       -0.2264
     10 H          63.5094   86.3275   12.5970 H       1  UNL1        0.1527
     11 O          63.9367   83.9938   14.0428 O.3     1  UNL1       -0.4274
     12 C          63.2960   84.2327   15.3778 C.3     1  UNL1        0.2621
     13 C          63.2520   85.6179   15.9515 C.ar    1  UNL1        0.1323
     14 N          63.8066   86.8556   15.3108 N.ar    1  UNL1       -0.2374
     15 C          63.5429   88.0113   16.2300 C.ar    1  UNL1        0.1062
     16 C          62.8254   87.4879   17.4388 C.ar    1  UNL1        0.0573
     17 S          62.6456   86.0087   17.2667 S.2     1  UNL1       -0.0666
     18 C          61.4501   88.9704   10.1375 C.3     1  UNL1        0.0920
     19 C          61.1603   89.8280   11.3336 C.3     1  UNL1        0.0907
     20 C          59.7602   89.9297   11.8620 C.3     1  UNL1        0.0228
     21 N          62.2707   90.5839   12.0011 N.am    1  UNL1       -0.2709
     22 C          63.3739   89.8401   12.6938 C.2     1  UNL1        0.4020
     23 O          63.3666   88.3403   12.7188 O.2     1  UNL1       -0.2264
     24 H          62.2755   91.5683   11.9847 H       1  UNL1        0.1527
     25 O          64.4843   90.5960   13.3613 O.3     1  UNL1       -0.4291
     26 C          64.7179   92.0388   13.0241 C.3     1  UNL1        0.2447
     27 C          65.7616   92.4134   12.0139 C.ar    1  UNL1        0.0714
     28 C          67.2406   92.2086   12.1569 C.ar    1  UNL1        0.1053
     29 N          67.9026   92.7271   10.9148 N.ar    1  UNL1       -0.2350
     30 C          66.8327   93.2523   10.0041 C.ar    1  UNL1        0.1343
     31 S          65.5095   93.0584   10.6834 S.2     1  UNL1       -0.0652
@<TRIPOS>BOND
     1     2     3    1
     2     3     1    1
     3     1     4    1
     4     4     5    1
     5     5     6    1
     6     5     7    1
     7     7     8   am
     8     8     9    2
     9     8    11    1
    10    11    12    1
    11    12    13    1
    12    13    14   ar
    13    14    15   ar
    14    15    16   ar
    15    16    17   ar
    16     1    18    1
    17    18    19    1
    18    19    20    1
    19    19    21    1
    20    21    22   am
    21    22    23    2
    22    22    25    1
    23    25    26    1
    24    26    27    1
    25    27    28   ar
    26    28    29   ar
    27    29    30   ar
    28    30    31   ar
    29    17    13   ar
    30    31    27   ar
    31     7    10    1
    32    21    24    1
@<TRIPOS>MOLECULE
*****
 31 32 0 0 0
SMALL
GASTEIGER

@<TRIPOS>ATOM
      1 N          63.8753   85.7130   15.4308 N.3     1  UNL1       -0.2699
      2 C          62.7375   86.6373   17.5758 C.3     1  UNL1        0.0188
      3 C          62.7513   85.6772   16.4233 C.3     1  UNL1        0.0722
      4 C          64.6844   86.9642   15.2586 C.3     1  UNL1        0.0920
      5 C          64.2203   88.0335   14.3145 C.3     1  UNL1        0.0907
      6 C          63.5055   87.6590   13.0501 C.3     1  UNL1        0.0228
      7 N          64.4709   89.4773   14.6349 N.am    1  UNL1       -0.2709
      8 C          63.4592   90.2577   15.4206 C.2     1  UNL1        0.4020
      9 O          62.1969   89.5944   15.8859 O.2     1  UNL1       -0.2264
     10 H          65.2995   89.9127   14.3296 H       1  UNL1        0.1527
     11 O          63.7098   91.7015   15.7410 O.3     1  UNL1       -0.4274
     12 C          64.9953   92.1124   16.3957 C.3     1  UNL1        0.2621
     13 C          66.2574   92.1878   15.5885 C.ar    1  UNL1        0.1323
     14 N          66.4258   91.7287   14.1705 N.ar    1  UNL1       -0.2374
     15 C          67.8451   91.9928   13.7633 C.ar    1  UNL1        0.1062
     16 C          68.5539   92.6151   14.9297 C.ar    1  UNL1        0.0573
     17 S          67.5726   92.7357   16.0577 S.2     1  UNL1       -0.0666
     18 C          64.1902   84.4973   14.6103 C.3     1  UNL1        0.0920
     19 C          63.1130   83.8403   13.7990 C.3     1  UNL1        0.0907
     20 C          62.7370   82.4133   14.0674 C.3     1  UNL1        0.0228
     21 N          62.4120   84.6104   12.7195 N.am    1  UNL1       -0.2709
     22 C          62.8113   84.4247   11.2856 C.2     1  UNL1        0.4020
     23 O          63.9117   83.4689   10.9314 O.2     1  UNL1       -0.2264
     24 H          61.6898   85.2377   12.9520 H       1  UNL1        0.1527
     25 O          62.1103   85.1948   10.2060 O.3     1  UNL1       -0.4291
     26 C          61.2175   86.3456   10.5647 C.3     1  UNL1        0.2447
     27 C          60.5662   87.1550    9.4827 C.ar    1  UNL1        0.0714
     28 C          60.5789   88.6509    9.3717 C.ar    1  UNL1        0.1053
     29 N          59.8083   89.0310    8.1422 N.ar    1  UNL1       -0.2350
     30 C          59.3194   87.7701    7.4933 C.ar    1  UNL1        0.1343
     31 S          59.7878   86.6107    8.3218 S.2     1  UNL1       -0.0652
@<TRIPOS>BOND
     1     2     3    1
     2     3     1    1
     3     1     4    1
     4     4     5    1
     5     5     6    1
     6     5     7    1
     7     7     8   am
     8     8     9    2
     9     8    11    1
    10    11    12    1
    11    12    13    1
    12    13    14   ar
    13    14    15   ar
    14    15    16   ar
    15    16    17   ar
    16     1    18    1
    17    18    19    1
    18    19    20    1
    19    19    21    1
    20    21    22   am
    21    22    23    2
    22    22    25    1
    23    25    26    1
    24    26    27    1
    25    27    28   ar
    26    28    29   ar
    27    29    30   ar
    28    30    31   ar
    29    17    13   ar
    30    31    27   ar
    31     7    10    1
    32    21    24    1
