@<TRIPOS>MOLECULE
*****
 53 61 0 0 0
SMALL
GASTEIGER

@<TRIPOS>ATOM
      1 C          62.1887   95.4015   -4.2005 C.3     1  UNL1        0.1445
      2 C          63.5393   95.0651   -3.6413 C.3     1  UNL1        0.0322
      3 C          63.6523   94.4090   -2.2971 C.3     1  UNL1        0.0049
      4 C          65.0030   94.0727   -1.7379 C.3     1  UNL1        0.0002
      5 C          62.4147   94.0893   -1.5121 C.3     1  UNL1        0.0298
      6 C          61.0641   94.4257   -2.0713 C.3     1  UNL1        0.1418
      7 O          60.9510   95.0818   -3.4155 O.3     1  UNL1       -0.3537
      8 C          60.0293   93.9938   -1.0751 C.3     1  UNL1        0.1373
      9 O          58.5441   94.1396   -1.2270 O.3     1  UNL1       -0.3820
     10 C          60.7403   93.3906    0.0999 C.3     1  UNL1        0.0272
     11 C          59.2460   93.4002    0.2302 C.3     1  UNL1        0.0025
     12 C          60.2358   92.7951    1.3809 C.3     1  UNL1        0.0023
     13 C          58.7615   92.7361    1.6510 C.3     1  UNL1        0.0001
     14 C          58.2570   92.1407    2.9320 C.3     1  UNL1        0.0001
     15 C          59.2267   91.6042    3.9428 C.3     1  UNL1        0.0023
     16 C          58.7222   91.0088    5.2238 C.3     1  UNL1        0.0251
     17 C          57.7655   90.5435    6.2812 C.3     1  UNL1        0.0024
     18 C          57.4202   91.3836    4.5802 C.3     1  UNL1        0.0024
     19 C          59.6920   90.4724    6.2347 C.3     1  UNL1        0.1177
     20 C          61.1663   90.5314    5.9645 C.3     1  UNL1        0.0296
     21 C          61.6708   91.1269    4.6835 C.3     1  UNL1        0.0025
     22 C          60.7011   91.6633    3.6727 C.3     1  UNL1        0.0002
     23 C          62.1753   91.7223    3.4026 C.3     1  UNL1        0.0000
     24 C          61.2056   92.2587    2.3917 C.3     1  UNL1        0.0001
     25 C          62.6799   92.3177    2.1216 C.3     1  UNL1        0.0000
     26 C          63.1844   92.9132    0.8406 C.3     1  UNL1        0.0002
     27 C          62.2146   93.4496   -0.1702 C.3     1  UNL1        0.0046
     28 C          63.6528   93.5766   -0.5772 C.3     1  UNL1        0.0002
     29 H          58.1020   93.7810   -0.4416 H       1  UNL1        0.2104
     30 C          62.0756   96.0576   -5.5447 C.3     1  UNL1        0.1664
     31 C          60.8144   95.9166   -6.3444 C.3     1  UNL1        0.1156
     32 C          60.1151   96.8560   -5.4070 C.3     1  UNL1        0.0319
     33 C          61.5137   94.9773   -7.2817 C.3     1  UNL1        0.0319
     34 O          59.5532   95.7757   -7.1441 O.3     1  UNL1       -0.3843
     35 H          58.8550   96.3180   -6.7450 H       1  UNL1        0.2103
     36 O          63.2238   96.8546   -6.0891 O.3     1  UNL1       -0.3514
     37 C          65.8167   96.7120   -6.0097 C.3     1  UNL1        0.0346
     38 C          64.4993   96.1655   -6.4742 C.3     1  UNL1        0.1423
     39 O          59.1875   89.8769    7.5156 O.3     1  UNL1       -0.3320
     40 C          60.1113   89.0778    8.3863 C.3     1  UNL1        0.2518
     41 C          60.9639   89.7694    9.4085 C.3     1  UNL1        0.1343
     42 N          61.8877   88.9703   10.2791 N.3     1  UNL1       -0.2651
     43 C          61.9589   87.4797   10.1276 C.3     1  UNL1        0.1048
     44 C          61.1064   86.7881    9.1054 C.3     1  UNL1        0.1621
     45 O          60.1825   87.5872    8.2347 O.3     1  UNL1       -0.3280
     46 C          62.7402   89.6618   11.3013 C.3     1  UNL1        0.0898
     47 C          63.4503   90.9812   11.3730 C.3     1  UNL1        0.0898
     48 N          63.9460   90.6398   12.7470 N.3     1  UNL1       -0.2673
     49 C          63.2358   89.3205   12.6753 C.3     1  UNL1        0.0898
     50 C          64.7985   91.3314   13.7692 C.3     1  UNL1        0.1173
     51 C          65.9340   92.3100   13.7165 C.3     1  UNL1        0.1606
     52 O          66.0041   92.3093   15.2149 O.3     1  UNL1       -0.3507
     53 C          64.8686   91.3307   15.2676 C.3     1  UNL1        0.1606
@<TRIPOS>BOND
     1    37    38    1
     2    38    36    1
     3    30    36    1
     4    30     1    1
     5     1     2    1
     6     2     3    1
     7     3     4    1
     8     5     3    1
     9     5     6    1
    10     6     7    1
    11     6     8    1
    12     8     9    1
    13     8    10    1
    14    10    11    1
    15    10    12    1
    16    12    13    1
    17    13    14    1
    18    15    14    1
    19    15    16    1
    20    16    17    1
    21    16    18    1
    22    16    19    1
    23    19    39    1
    24    40    39    1
    25    40    41    1
    26    41    42    1
    27    42    46    1
    28    46    47    1
    29    47    48    1
    30    48    50    1
    31    50    51    1
    32    51    52    1
    33    52    53    1
    34    48    49    1
    35    42    43    1
    36    43    44    1
    37    44    45    1
    38    19    20    1
    39    20    21    1
    40    22    21    1
    41    22    23    1
    42    24    23    1
    43    24    25    1
    44    25    26    1
    45    26    27    1
    46    27    28    1
    47    30    31    1
    48    31    32    1
    49    31    33    1
    50    31    34    1
    51     7     1    1
    52    27    10    1
    53    27     5    1
    54    24    12    1
    55    22    15    1
    56    45    40    1
    57    24    22    1
    58    49    46    1
    59    53    50    1
    60     9    29    1
    61    34    35    1
@<TRIPOS>MOLECULE
*****
 53 61 0 0 0
SMALL
GASTEIGER

@<TRIPOS>ATOM
      1 C          62.0299   95.4306   -3.8141 C.3     1  UNL1        0.1445
      2 C          63.3885   95.0661   -3.2932 C.3     1  UNL1        0.0322
      3 C          63.5229   94.3684   -1.9721 C.3     1  UNL1        0.0049
      4 C          64.8816   94.0038   -1.4514 C.3     1  UNL1        0.0002
      5 C          62.2987   94.0352   -1.1719 C.3     1  UNL1        0.0298
      6 C          60.9401   94.3998   -1.6927 C.3     1  UNL1        0.1418
      7 O          60.8056   95.0975   -3.0138 O.3     1  UNL1       -0.3537
      8 C          59.9219   93.9465   -0.6889 C.3     1  UNL1        0.1373
      9 O          58.4353   94.1093   -0.8058 O.3     1  UNL1       -0.3820
     10 C          60.6512   93.3017    0.4523 C.3     1  UNL1        0.0272
     11 C          59.1600   93.3199    0.6136 C.3     1  UNL1        0.0025
     12 C          60.1674   92.6718    1.7248 C.3     1  UNL1        0.0023
     13 C          58.6985   92.6169    2.0233 C.3     1  UNL1        0.0001
     14 C          58.2148   91.9869    3.2958 C.3     1  UNL1        0.0001
     15 C          59.2000   91.4118    4.2697 C.3     1  UNL1        0.0023
     16 C          58.7163   90.7819    5.5421 C.3     1  UNL1        0.0251
     17 C          57.7771   90.2926    6.6045 C.3     1  UNL1        0.0024
     18 C          57.4049   91.1870    4.9371 C.3     1  UNL1        0.0024
     19 C          59.7016   90.2068    6.5161 C.3     1  UNL1        0.1177
     20 C          61.1705   90.2616    6.2176 C.3     1  UNL1        0.0296
     21 C          61.6542   90.8916    4.9451 C.3     1  UNL1        0.0025
     22 C          60.6690   91.4667    3.9712 C.3     1  UNL1        0.0002
     23 C          62.1380   91.5216    3.6727 C.3     1  UNL1        0.0000
     24 C          61.1527   92.0967    2.6987 C.3     1  UNL1        0.0001
     25 C          62.6217   92.1515    2.4002 C.3     1  UNL1        0.0000
     26 C          63.1054   92.7815    1.1277 C.3     1  UNL1        0.0002
     27 C          62.1202   93.3566    0.1538 C.3     1  UNL1        0.0046
     28 C          63.5508   93.4839   -0.2787 C.3     1  UNL1        0.0002
     29 H          58.0060   93.7306   -0.0227 H       1  UNL1        0.2104
     30 C          61.8955   96.1283   -5.1351 C.3     1  UNL1        0.1664
     31 C          63.0283   96.0982   -6.1179 C.3     1  UNL1        0.1156
     32 C          62.1685   95.3408   -7.0859 C.3     1  UNL1        0.0319
     33 C          63.8882   96.8556   -5.1498 C.3     1  UNL1        0.0319
     34 O          64.1612   96.0682   -7.1006 O.3     1  UNL1       -0.3843
     35 H          63.8811   95.5999   -7.9026 H       1  UNL1        0.2103
     36 O          60.6282   96.8560   -5.4734 O.3     1  UNL1       -0.3514
     37 C          58.0393   96.8410   -5.6903 C.3     1  UNL1        0.0346
     38 C          59.3396   96.0987   -5.6006 C.3     1  UNL1        0.1423
     39 O          59.2179   89.5768    7.7886 O.3     1  UNL1       -0.3320
     40 C          60.1457   89.4440    8.9596 C.3     1  UNL1        0.2518
     41 C          60.6160   88.0873    9.3938 C.3     1  UNL1        0.1343
     42 N          61.5439   87.9545   10.5649 N.3     1  UNL1       -0.2651
     43 C          62.0014   89.1783   11.3018 C.3     1  UNL1        0.1048
     44 C          61.5311   90.5349   10.8677 C.3     1  UNL1        0.1621
     45 O          60.6032   90.6677    9.6966 O.3     1  UNL1       -0.3280
     46 C          62.0141   86.5980   10.9990 C.3     1  UNL1        0.0898
     47 C          62.0106   85.2282   10.3876 C.3     1  UNL1        0.0898
     48 N          62.6793   84.6794   11.6130 N.3     1  UNL1       -0.2673
     49 C          62.6829   86.0492   12.2244 C.3     1  UNL1        0.0898
     50 C          63.1496   83.3228   12.0471 C.3     1  UNL1        0.1173
     51 C          62.6525   81.9195   11.8649 C.3     1  UNL1        0.1606
     52 O          63.8148   81.4044   12.6611 O.3     1  UNL1       -0.3507
     53 C          64.3119   82.8078   12.8433 C.3     1  UNL1        0.1606
@<TRIPOS>BOND
     1    37    38    1
     2    38    36    1
     3    30    36    1
     4    30     1    1
     5     1     2    1
     6     2     3    1
     7     3     4    1
     8     5     3    1
     9     5     6    1
    10     6     7    1
    11     6     8    1
    12     8     9    1
    13     8    10    1
    14    10    11    1
    15    10    12    1
    16    12    13    1
    17    13    14    1
    18    15    14    1
    19    15    16    1
    20    16    17    1
    21    16    18    1
    22    16    19    1
    23    19    39    1
    24    40    39    1
    25    40    41    1
    26    41    42    1
    27    42    46    1
    28    46    47    1
    29    47    48    1
    30    48    50    1
    31    50    51    1
    32    51    52    1
    33    52    53    1
    34    48    49    1
    35    42    43    1
    36    43    44    1
    37    44    45    1
    38    19    20    1
    39    20    21    1
    40    22    21    1
    41    22    23    1
    42    24    23    1
    43    24    25    1
    44    25    26    1
    45    26    27    1
    46    27    28    1
    47    30    31    1
    48    31    32    1
    49    31    33    1
    50    31    34    1
    51     7     1    1
    52    27    10    1
    53    27     5    1
    54    24    12    1
    55    22    15    1
    56    45    40    1
    57    24    22    1
    58    49    46    1
    59    53    50    1
    60     9    29    1
    61    34    35    1
@<TRIPOS>MOLECULE
*****
 53 61 0 0 0
SMALL
GASTEIGER

@<TRIPOS>ATOM
      1 C          62.7659   95.6020   -3.4909 C.3     1  UNL1        0.1445
      2 C          64.0733   95.1906   -2.8813 C.3     1  UNL1        0.0322
      3 C          64.0928   94.4564   -1.5733 C.3     1  UNL1        0.0049
      4 C          65.4002   94.0451   -0.9638 C.3     1  UNL1        0.0002
      5 C          62.8051   94.1336   -0.8751 C.3     1  UNL1        0.0298
      6 C          61.4978   94.5449   -1.4848 C.3     1  UNL1        0.1418
      7 O          61.4782   95.2791   -2.7927 O.3     1  UNL1       -0.3537
      8 C          60.3975   94.0916   -0.5716 C.3     1  UNL1        0.1373
      9 O          58.9279   94.2943   -0.7935 O.3     1  UNL1       -0.3820
     10 C          61.0248   93.4001    0.6024 C.3     1  UNL1        0.0272
     11 C          59.5265   93.4512    0.6535 C.3     1  UNL1        0.0025
     12 C          60.4333   92.7502    1.8180 C.3     1  UNL1        0.0023
     13 C          58.9453   92.7243    2.0056 C.3     1  UNL1        0.0001
     14 C          58.3538   92.0743    3.2212 C.3     1  UNL1        0.0001
     15 C          59.2503   91.4503    4.2492 C.3     1  UNL1        0.0023
     16 C          58.6588   90.8004    5.4648 C.3     1  UNL1        0.0251
     17 C          57.6322   90.3077    6.4412 C.3     1  UNL1        0.0024
     18 C          57.4058   91.2533    4.7759 C.3     1  UNL1        0.0024
     19 C          59.5554   90.1763    6.4929 C.3     1  UNL1        0.1177
     20 C          61.0434   90.2023    6.3053 C.3     1  UNL1        0.0296
     21 C          61.6349   90.8522    5.0897 C.3     1  UNL1        0.0025
     22 C          60.7384   91.4762    4.0617 C.3     1  UNL1        0.0002
     23 C          62.2263   91.5021    3.8741 C.3     1  UNL1        0.0000
     24 C          61.3299   92.1262    2.8460 C.3     1  UNL1        0.0001
     25 C          62.8178   92.1521    2.6584 C.3     1  UNL1        0.0000
     26 C          63.4093   92.8020    1.4428 C.3     1  UNL1        0.0002
     27 C          62.5128   93.4260    0.4148 C.3     1  UNL1        0.0046
     28 C          63.9742   93.5287    0.0928 C.3     1  UNL1        0.0002
     29 H          58.4329   93.9066   -0.0549 H       1  UNL1        0.2104
     30 C          62.7463   96.3362   -4.7988 C.3     1  UNL1        0.1664
     31 C          64.0265   96.5788   -5.5420 C.3     1  UNL1        0.1156
     32 C          63.3164   96.3431   -6.8421 C.3     1  UNL1        0.0319
     33 C          64.7366   96.8144   -4.2419 C.3     1  UNL1        0.0319
     34 O          65.3067   96.8214   -6.2852 O.3     1  UNL1       -0.3843
     35 H          65.1497   96.7300   -7.2381 H       1  UNL1        0.2103
     36 O          61.4465   96.8278   -5.3635 O.3     1  UNL1       -0.3514
     37 C          59.4855   95.1262   -5.2701 C.3     1  UNL1        0.0346
     38 C          60.5213   95.8727   -6.0574 C.3     1  UNL1        0.1423
     39 O          58.9639   89.5264    7.7085 O.3     1  UNL1       -0.3320
     40 C          59.8608   89.0091    8.7938 C.3     1  UNL1        0.2518
     41 C          60.8924   89.9092    9.4069 C.3     1  UNL1        0.1343
     42 N          61.7893   89.3920   10.4922 N.3     1  UNL1       -0.2651
     43 C          61.6547   87.9746   10.9645 C.3     1  UNL1        0.1048
     44 C          60.6232   87.0746   10.3515 C.3     1  UNL1        0.1621
     45 O          59.7263   87.5918    9.2661 O.3     1  UNL1       -0.3280
     46 C          62.8208   90.2921   11.1052 C.3     1  UNL1        0.0898
     47 C          63.4023   90.4584   12.4779 C.3     1  UNL1        0.0898
     48 N          64.2796   91.5651   11.9722 N.3     1  UNL1       -0.2673
     49 C          63.6981   91.3987   10.5995 C.3     1  UNL1        0.0898
     50 C          65.3111   92.4651   12.5852 C.3     1  UNL1        0.1173
     51 C          66.1040   92.4568   13.8584 C.3     1  UNL1        0.1606
     52 O          66.7699   93.7381   13.4521 O.3     1  UNL1       -0.3507
     53 C          65.9769   93.7464   12.1788 C.3     1  UNL1        0.1606
@<TRIPOS>BOND
     1    37    38    1
     2    38    36    1
     3    30    36    1
     4    30     1    1
     5     1     2    1
     6     2     3    1
     7     3     4    1
     8     5     3    1
     9     5     6    1
    10     6     7    1
    11     6     8    1
    12     8     9    1
    13     8    10    1
    14    10    11    1
    15    10    12    1
    16    12    13    1
    17    13    14    1
    18    15    14    1
    19    15    16    1
    20    16    17    1
    21    16    18    1
    22    16    19    1
    23    19    39    1
    24    40    39    1
    25    40    41    1
    26    41    42    1
    27    42    46    1
    28    46    47    1
    29    47    48    1
    30    48    50    1
    31    50    51    1
    32    51    52    1
    33    52    53    1
    34    48    49    1
    35    42    43    1
    36    43    44    1
    37    44    45    1
    38    19    20    1
    39    20    21    1
    40    22    21    1
    41    22    23    1
    42    24    23    1
    43    24    25    1
    44    25    26    1
    45    26    27    1
    46    27    28    1
    47    30    31    1
    48    31    32    1
    49    31    33    1
    50    31    34    1
    51     7     1    1
    52    27    10    1
    53    27     5    1
    54    24    12    1
    55    22    15    1
    56    45    40    1
    57    24    22    1
    58    49    46    1
    59    53    50    1
    60     9    29    1
    61    34    35    1
@<TRIPOS>MOLECULE
*****
 53 61 0 0 0
SMALL
GASTEIGER

@<TRIPOS>ATOM
      1 C          63.8971   94.8517   -4.8405 C.3     1  UNL1        0.1445
      2 C          62.4291   95.0938   -5.0313 C.3     1  UNL1        0.0322
      3 C          61.4643   94.7556   -3.9336 C.3     1  UNL1        0.0049
      4 C          59.9963   94.9977   -4.1245 C.3     1  UNL1        0.0002
      5 C          61.9676   94.1754   -2.6451 C.3     1  UNL1        0.0298
      6 C          63.4356   93.9333   -2.4543 C.3     1  UNL1        0.1418
      7 O          64.4003   94.2715   -3.5520 O.3     1  UNL1       -0.3537
      8 C          63.6358   93.3543   -1.0852 C.3     1  UNL1        0.1373
      9 O          64.9495   92.9602   -0.4780 O.3     1  UNL1       -0.3820
     10 C          62.2915   93.2384   -0.4298 C.3     1  UNL1        0.0272
     11 C          63.4296   92.7637    0.4243 C.3     1  UNL1        0.0025
     12 C          61.8730   92.7364    0.9203 C.3     1  UNL1        0.0023
     13 C          62.9040   92.2289    1.8845 C.3     1  UNL1        0.0001
     14 C          62.4855   91.7269    3.2346 C.3     1  UNL1        0.0001
     15 C          61.0361   91.7324    3.6206 C.3     1  UNL1        0.0023
     16 C          60.6176   91.2304    4.9708 C.3     1  UNL1        0.0251
     17 C          60.7142   90.6573    6.3536 C.3     1  UNL1        0.0024
     18 C          62.1007   91.0259    5.0650 C.3     1  UNL1        0.0024
     19 C          59.1681   91.2358    5.3568 C.3     1  UNL1        0.1177
     20 C          58.1372   91.7433    4.3927 C.3     1  UNL1        0.0296
     21 C          58.5556   92.2453    3.0425 C.3     1  UNL1        0.0025
     22 C          60.0051   92.2399    2.6565 C.3     1  UNL1        0.0002
     23 C          58.9741   92.7473    1.6924 C.3     1  UNL1        0.0000
     24 C          60.4235   92.7419    1.3064 C.3     1  UNL1        0.0001
     25 C          59.3926   93.2493    0.3423 C.3     1  UNL1        0.0000
     26 C          59.8110   93.7514   -1.0079 C.3     1  UNL1        0.0002
     27 C          61.2605   93.7459   -1.3939 C.3     1  UNL1        0.0046
     28 C          60.3479   94.2806   -2.4575 C.3     1  UNL1        0.0002
     29 H          64.8016   92.6135    0.4158 H       1  UNL1        0.2104
     30 C          64.8619   95.1899   -5.9381 C.3     1  UNL1        0.1664
     31 C          66.0736   96.0229   -5.6414 C.3     1  UNL1        0.1156
     32 C          65.3282   96.7142   -4.5384 C.3     1  UNL1        0.0319
     33 C          66.8189   95.3315   -6.7444 C.3     1  UNL1        0.0319
     34 O          67.2853   96.8558   -5.3447 O.3     1  UNL1       -0.3843
     35 H          67.0920   97.4569   -4.6083 H       1  UNL1        0.2103
     36 O          64.6150   94.6951   -7.3325 O.3     1  UNL1       -0.3514
     37 C          64.9859   92.1538   -6.9400 C.3     1  UNL1        0.0346
     38 C          64.2015   93.2714   -7.5608 C.3     1  UNL1        0.1423
     39 O          58.7497   90.7338    6.7069 O.3     1  UNL1       -0.3320
     40 C          59.2836   89.4296    7.2207 C.3     1  UNL1        0.2518
     41 C          60.1288   89.4011    8.4596 C.3     1  UNL1        0.1343
     42 N          60.6628   88.0970    8.9734 N.3     1  UNL1       -0.2651
     43 C          60.3515   86.8213    8.2484 C.3     1  UNL1        0.1048
     44 C          59.5062   86.8497    7.0096 C.3     1  UNL1        0.1621
     45 O          58.9723   88.1539    6.4957 O.3     1  UNL1       -0.3280
     46 C          61.5080   88.0685   10.2122 C.3     1  UNL1        0.0898
     47 C          61.9383   89.0866   11.2263 C.3     1  UNL1        0.0898
     48 N          62.7034   88.0283   11.9643 N.3     1  UNL1       -0.2673
     49 C          62.2730   87.0102   10.9502 C.3     1  UNL1        0.0898
     50 C          63.5486   87.9998   13.2032 C.3     1  UNL1        0.1173
     51 C          64.2442   89.0349   14.0365 C.3     1  UNL1        0.1606
     52 O          64.7439   87.9595   14.9551 O.3     1  UNL1       -0.3507
     53 C          64.0483   86.9244   14.1217 C.3     1  UNL1        0.1606
@<TRIPOS>BOND
     1    37    38    1
     2    38    36    1
     3    30    36    1
     4    30     1    1
     5     1     2    1
     6     2     3    1
     7     3     4    1
     8     5     3    1
     9     5     6    1
    10     6     7    1
    11     6     8    1
    12     8     9    1
    13     8    10    1
    14    10    11    1
    15    10    12    1
    16    12    13    1
    17    13    14    1
    18    15    14    1
    19    15    16    1
    20    16    17    1
    21    16    18    1
    22    16    19    1
    23    19    39    1
    24    40    39    1
    25    40    41    1
    26    41    42    1
    27    42    46    1
    28    46    47    1
    29    47    48    1
    30    48    50    1
    31    50    51    1
    32    51    52    1
    33    52    53    1
    34    48    49    1
    35    42    43    1
    36    43    44    1
    37    44    45    1
    38    19    20    1
    39    20    21    1
    40    22    21    1
    41    22    23    1
    42    24    23    1
    43    24    25    1
    44    25    26    1
    45    26    27    1
    46    27    28    1
    47    30    31    1
    48    31    32    1
    49    31    33    1
    50    31    34    1
    51     7     1    1
    52    27    10    1
    53    27     5    1
    54    24    12    1
    55    22    15    1
    56    45    40    1
    57    24    22    1
    58    49    46    1
    59    53    50    1
    60     9    29    1
    61    34    35    1
@<TRIPOS>MOLECULE
*****
 53 61 0 0 0
SMALL
GASTEIGER

@<TRIPOS>ATOM
      1 C          63.9914   95.0472   -4.3458 C.3     1  UNL1        0.1445
      2 C          62.5368   95.3238   -4.5857 C.3     1  UNL1        0.0322
      3 C          61.5213   94.9527   -3.5458 C.3     1  UNL1        0.0049
      4 C          60.0667   95.2293   -3.7859 C.3     1  UNL1        0.0002
      5 C          61.9605   94.3052   -2.2661 C.3     1  UNL1        0.0298
      6 C          63.4151   94.0287   -2.0261 C.3     1  UNL1        0.1418
      7 O          64.4306   94.3997   -3.0659 O.3     1  UNL1       -0.3537
      8 C          63.5482   93.3839   -0.6783 C.3     1  UNL1        0.1373
      9 O          64.8288   92.9392   -0.0362 O.3     1  UNL1       -0.3820
     10 C          62.1758   93.2620   -0.0853 C.3     1  UNL1        0.0272
     11 C          63.2692   92.7285    0.7921 C.3     1  UNL1        0.0025
     12 C          61.6929   92.7061    1.2215 C.3     1  UNL1        0.0023
     13 C          62.6741   92.1367    2.2028 C.3     1  UNL1        0.0001
     14 C          62.1912   91.5808    3.5096 C.3     1  UNL1        0.0001
     15 C          60.7270   91.5942    3.8351 C.3     1  UNL1        0.0023
     16 C          60.2441   91.0383    5.1419 C.3     1  UNL1        0.0251
     17 C          60.2731   90.4008    6.4994 C.3     1  UNL1        0.0024
     18 C          61.7184   90.8035    5.2878 C.3     1  UNL1        0.0024
     19 C          58.7798   91.0518    5.4674 C.3     1  UNL1        0.1177
     20 C          57.7986   91.6211    4.4861 C.3     1  UNL1        0.0296
     21 C          58.2815   92.1771    3.1793 C.3     1  UNL1        0.0025
     22 C          59.7457   92.1636    2.8538 C.3     1  UNL1        0.0002
     23 C          58.7645   92.7330    1.8725 C.3     1  UNL1        0.0000
     24 C          60.2286   92.7196    1.5470 C.3     1  UNL1        0.0001
     25 C          59.2474   93.2889    0.5657 C.3     1  UNL1        0.0000
     26 C          59.7304   93.8448   -0.7411 C.3     1  UNL1        0.0002
     27 C          61.1945   93.8314   -1.0666 C.3     1  UNL1        0.0046
     28 C          60.3362   94.4304   -2.1410 C.3     1  UNL1        0.0002
     29 H          64.6378   92.5545    0.8335 H       1  UNL1        0.2104
     30 C          65.0069   95.4182   -5.3856 C.3     1  UNL1        0.1664
     31 C          65.3563   94.4460   -6.4731 C.3     1  UNL1        0.1156
     32 C          65.6342   93.3926   -5.4421 C.3     1  UNL1        0.0319
     33 C          65.0783   95.4995   -7.5041 C.3     1  UNL1        0.0319
     34 O          65.7057   93.4739   -7.5607 O.3     1  UNL1       -0.3843
     35 H          65.9505   92.6220   -7.1665 H       1  UNL1        0.2103
     36 O          65.6729   96.7614   -5.3378 O.3     1  UNL1       -0.3514
     37 C          68.0295   96.8504   -6.4278 C.3     1  UNL1        0.0346
     38 C          67.1638   96.8548   -5.2028 C.3     1  UNL1        0.1423
     39 O          58.2969   90.4958    6.7742 O.3     1  UNL1       -0.3320
     40 C          59.0298   89.3588    7.4222 C.3     1  UNL1        0.2518
     41 C          59.8680   89.6046    8.6417 C.3     1  UNL1        0.1343
     42 N          60.6008   88.4676    9.2897 N.3     1  UNL1       -0.2651
     43 C          60.4956   87.0847    8.7183 C.3     1  UNL1        0.1048
     44 C          59.6574   86.8388    7.4989 C.3     1  UNL1        0.1621
     45 O          58.9245   87.9759    6.8508 O.3     1  UNL1       -0.3280
     46 C          61.4390   88.7135   10.5091 C.3     1  UNL1        0.0898
     47 C          62.6808   88.0993   11.0842 C.3     1  UNL1        0.0898
     48 N          62.6243   89.0612   12.2338 N.3     1  UNL1       -0.2673
     49 C          61.3825   89.6754   11.6587 C.3     1  UNL1        0.0898
     50 C          63.4625   89.3071   13.4532 C.3     1  UNL1        0.1173
     51 C          64.2745   88.4449   14.3735 C.3     1  UNL1        0.1606
     52 O          64.6478   89.6549   15.1777 O.3     1  UNL1       -0.3507
     53 C          63.8357   90.5171   14.2573 C.3     1  UNL1        0.1606
@<TRIPOS>BOND
     1    37    38    1
     2    38    36    1
     3    30    36    1
     4    30     1    1
     5     1     2    1
     6     2     3    1
     7     3     4    1
     8     5     3    1
     9     5     6    1
    10     6     7    1
    11     6     8    1
    12     8     9    1
    13     8    10    1
    14    10    11    1
    15    10    12    1
    16    12    13    1
    17    13    14    1
    18    15    14    1
    19    15    16    1
    20    16    17    1
    21    16    18    1
    22    16    19    1
    23    19    39    1
    24    40    39    1
    25    40    41    1
    26    41    42    1
    27    42    46    1
    28    46    47    1
    29    47    48    1
    30    48    50    1
    31    50    51    1
    32    51    52    1
    33    52    53    1
    34    48    49    1
    35    42    43    1
    36    43    44    1
    37    44    45    1
    38    19    20    1
    39    20    21    1
    40    22    21    1
    41    22    23    1
    42    24    23    1
    43    24    25    1
    44    25    26    1
    45    26    27    1
    46    27    28    1
    47    30    31    1
    48    31    32    1
    49    31    33    1
    50    31    34    1
    51     7     1    1
    52    27    10    1
    53    27     5    1
    54    24    12    1
    55    22    15    1
    56    45    40    1
    57    24    22    1
    58    49    46    1
    59    53    50    1
    60     9    29    1
    61    34    35    1
@<TRIPOS>MOLECULE
*****
 53 61 0 0 0
SMALL
GASTEIGER

@<TRIPOS>ATOM
      1 C          61.9790   95.2469   -4.6210 C.3     1  UNL1        0.1445
      2 C          63.3497   94.9251   -4.1036 C.3     1  UNL1        0.0322
      3 C          63.5139   94.3185   -2.7416 C.3     1  UNL1        0.0049
      4 C          64.8847   93.9967   -2.2243 C.3     1  UNL1        0.0002
      5 C          62.3075   94.0337   -1.8969 C.3     1  UNL1        0.0298
      6 C          60.9368   94.3555   -2.4143 C.3     1  UNL1        0.1418
      7 O          60.7725   94.9621   -3.7763 O.3     1  UNL1       -0.3537
      8 C          59.9410   93.9655   -1.3625 C.3     1  UNL1        0.1373
      9 O          58.4515   94.1125   -1.4608 O.3     1  UNL1       -0.3820
     10 C          60.6962   93.4026   -0.1951 C.3     1  UNL1        0.0272
     11 C          59.2083   93.4240   -0.0062 C.3     1  UNL1        0.0025
     12 C          60.2411   92.8572    1.1260 C.3     1  UNL1        0.0023
     13 C          58.7786   92.8150    1.4563 C.3     1  UNL1        0.0001
     14 C          58.3235   92.2695    2.7774 C.3     1  UNL1        0.0001
     15 C          59.3309   91.7662    3.7682 C.3     1  UNL1        0.0023
     16 C          58.8758   91.2207    5.0893 C.3     1  UNL1        0.0251
     17 C          57.9604   90.7992    6.2003 C.3     1  UNL1        0.0024
     18 C          57.5504   91.5776    4.4843 C.3     1  UNL1        0.0024
     19 C          59.8833   90.7174    6.0801 C.3     1  UNL1        0.1177
     20 C          61.3458   90.7596    5.7498 C.3     1  UNL1        0.0296
     21 C          61.8009   91.3051    4.4287 C.3     1  UNL1        0.0025
     22 C          60.7935   91.8084    3.4379 C.3     1  UNL1        0.0002
     23 C          62.2561   91.8505    3.1076 C.3     1  UNL1        0.0000
     24 C          61.2486   92.3538    2.1168 C.3     1  UNL1        0.0001
     25 C          62.7112   92.3960    1.7865 C.3     1  UNL1        0.0000
     26 C          63.1663   92.9415    0.4654 C.3     1  UNL1        0.0002
     27 C          62.1589   93.4448   -0.5254 C.3     1  UNL1        0.0046
     28 C          63.5801   93.5500   -0.9935 C.3     1  UNL1        0.0002
     29 H          58.0398   93.7851   -0.6458 H       1  UNL1        0.2104
     30 C          61.8147   95.8535   -5.9830 C.3     1  UNL1        0.1664
     31 C          60.5647   95.5983   -6.7719 C.3     1  UNL1        0.1156
     32 C          59.9604   96.8560   -6.2214 C.3     1  UNL1        0.0319
     33 C          61.1690   94.3406   -7.3224 C.3     1  UNL1        0.0319
     34 O          59.3147   95.3430   -7.5608 O.3     1  UNL1       -0.3843
     35 H          58.6769   96.0548   -7.3953 H       1  UNL1        0.2103
     36 O          62.9004   96.7154   -6.5560 O.3     1  UNL1       -0.3514
     37 C          65.2359   95.6344   -6.9124 C.3     1  UNL1        0.0346
     38 C          63.9294   96.1174   -7.4690 C.3     1  UNL1        0.1423
     39 O          59.4282   90.1719    7.4012 O.3     1  UNL1       -0.3320
     40 C          59.7832   88.7690    7.7958 C.3     1  UNL1        0.2518
     41 C          60.6035   88.5210    9.0270 C.3     1  UNL1        0.1343
     42 N          60.9586   87.1181    9.4216 N.3     1  UNL1       -0.2651
     43 C          60.4934   85.9632    8.5852 C.3     1  UNL1        0.1048
     44 C          59.6732   86.2111    7.3541 C.3     1  UNL1        0.1621
     45 O          59.3181   87.6141    6.9594 O.3     1  UNL1       -0.3280
     46 C          61.7788   86.8702   10.6528 C.3     1  UNL1        0.0898
     47 C          62.0758   85.6729   11.5062 C.3     1  UNL1        0.0898
     48 N          62.9389   86.5196   12.3939 N.3     1  UNL1       -0.2673
     49 C          62.6419   87.7169   11.5405 C.3     1  UNL1        0.0898
     50 C          63.7592   86.2716   13.6250 C.3     1  UNL1        0.1173
     51 C          64.3602   85.0596   14.2727 C.3     1  UNL1        0.1606
     52 O          64.9192   85.9211   15.3661 O.3     1  UNL1       -0.3507
     53 C          64.3181   87.1332   14.7184 C.3     1  UNL1        0.1606
@<TRIPOS>BOND
     1    37    38    1
     2    38    36    1
     3    30    36    1
     4    30     1    1
     5     1     2    1
     6     2     3    1
     7     3     4    1
     8     5     3    1
     9     5     6    1
    10     6     7    1
    11     6     8    1
    12     8     9    1
    13     8    10    1
    14    10    11    1
    15    10    12    1
    16    12    13    1
    17    13    14    1
    18    15    14    1
    19    15    16    1
    20    16    17    1
    21    16    18    1
    22    16    19    1
    23    19    39    1
    24    40    39    1
    25    40    41    1
    26    41    42    1
    27    42    46    1
    28    46    47    1
    29    47    48    1
    30    48    50    1
    31    50    51    1
    32    51    52    1
    33    52    53    1
    34    48    49    1
    35    42    43    1
    36    43    44    1
    37    44    45    1
    38    19    20    1
    39    20    21    1
    40    22    21    1
    41    22    23    1
    42    24    23    1
    43    24    25    1
    44    25    26    1
    45    26    27    1
    46    27    28    1
    47    30    31    1
    48    31    32    1
    49    31    33    1
    50    31    34    1
    51     7     1    1
    52    27    10    1
    53    27     5    1
    54    24    12    1
    55    22    15    1
    56    45    40    1
    57    24    22    1
    58    49    46    1
    59    53    50    1
    60     9    29    1
    61    34    35    1
