@<TRIPOS>MOLECULE
*****
 40 43 0 0 0
SMALL
GASTEIGER

@<TRIPOS>ATOM
      1 C          62.1489   87.8426   10.3546 C.3     1  UNL1        0.1678
      2 C          62.4225   89.0624   11.1837 C.2     1  UNL1        0.2492
      3 O          62.0531   90.3731   10.5549 O.2     1  UNL1       -0.2727
      4 N          63.0166   89.1446   12.5586 N.am    1  UNL1       -0.2501
      5 C          63.4840   88.0275   13.4439 C.ar    1  UNL1        0.0679
      6 C          64.0152   88.5467   14.7470 C.ar    1  UNL1        0.0162
      7 C          64.5350   87.5906   15.7793 C.ar    1  UNL1        0.0014
      8 C          64.5236   86.1153   15.5084 C.ar    1  UNL1        0.0014
      9 C          63.9923   85.5961   14.2053 C.ar    1  UNL1        0.0162
     10 C          63.4725   86.5523   13.1730 C.ar    1  UNL1        0.0676
     11 N          62.9909   85.8297   11.9499 N.am    1  UNL1       -0.2556
     12 C          63.1148   84.3353   11.9858 C.2     1  UNL1        0.2535
     13 O          62.6621   83.5167   10.8131 O.2     1  UNL1       -0.2726
     14 C          62.4018   86.4039   10.6956 C.3     1  UNL1        0.1067
     15 C          62.0145   85.4078    9.6431 C.3     1  UNL1        0.0242
     16 C          60.0853   88.4333    8.8909 C.2     1  UNL1        0.2371
     17 O          59.2353   88.5194   10.1239 O.2     1  UNL1       -0.2737
     18 N          61.5420   88.0949    9.0063 N.am    1  UNL1       -0.2959
     19 H          62.0999   88.0384    8.1970 H       1  UNL1        0.1499
     20 C          59.4784   88.6856    7.5425 C.3     1  UNL1        0.1316
     21 C          58.7113   87.5984    6.8500 C.3     1  UNL1        0.0270
     22 C          58.8155   90.3736    5.6821 C.3     1  UNL1        0.0862
     23 N          59.6387   90.0250    6.8867 N.3     1  UNL1       -0.2902
     24 H          59.4329   90.7273    7.5972 H       1  UNL1        0.1237
     25 C          63.1628   90.5268   13.1227 C.3     1  UNL1        0.1457
     26 C          64.3909   91.3338   12.8215 C.ar    1  UNL1        0.1004
     27 N          64.8677   91.7380   11.4579 N.ar    1  UNL1       -0.1719
     28 N          66.1292   92.5323   11.6246 N.ar    1  UNL1       -0.2491
     29 C          66.9447   93.1342   10.5189 C.3     1  UNL1        0.1537
     30 C          66.4320   92.6189   13.0912 C.ar    1  UNL1        0.0791
     31 C          67.5473   93.2767   13.8487 C.ar    1  UNL1        0.0188
     32 C          67.5881   93.1936   15.3458 C.ar    1  UNL1        0.0015
     33 C          66.5138   92.4529   16.0854 C.ar    1  UNL1        0.0001
     34 C          65.3986   91.7952   15.3280 C.ar    1  UNL1        0.0028
     35 C          65.3577   91.8782   13.8309 C.ar    1  UNL1        0.0342
     36 C          63.6913   83.6593   13.1945 C.3     1  UNL1        0.2357
     37 S          63.3997   82.2110   13.4544 S.O2    1  UNL1        0.0007
     38 C          63.1080   80.7629   13.7143 C.3     1  UNL1        0.1766
     39 O          64.6294   81.8256   12.6868 O.2     1  UNL1       -0.1725
     40 O          62.1699   82.5965   14.2220 O.2     1  UNL1       -0.1725
@<TRIPOS>BOND
     1    22    23    1
     2    23    20    1
     3    20    21    1
     4    20    16    1
     5    16    17    2
     6    16    18   am
     7     1    18    1
     8     1     2    1
     9     2     3    2
    10     2     4   am
    11     4    25    1
    12    25    26    1
    13    26    27   ar
    14    27    28   ar
    15    28    29    1
    16    28    30   ar
    17    30    31   ar
    18    31    32   ar
    19    32    33   ar
    20    33    34   ar
    21    34    35   ar
    22     4     5    1
    23     5     6   ar
    24     6     7   ar
    25     7     8   ar
    26     8     9   ar
    27     9    10   ar
    28    10    11    1
    29    11    12   am
    30    12    13    2
    31    12    36    1
    32    36    37    1
    33    37    38    1
    34    37    39    2
    35    37    40    2
    36    11    14    1
    37    14    15    1
    38    14     1    1
    39    35    26   ar
    40    10     5   ar
    41    35    30   ar
    42    23    24    1
    43    18    19    1
@<TRIPOS>MOLECULE
*****
 40 43 0 0 0
SMALL
GASTEIGER

@<TRIPOS>ATOM
      1 C          62.3755   89.0872   10.1425 C.3     1  UNL1        0.1678
      2 C          62.8923   90.4846   10.3171 C.2     1  UNL1        0.2492
      3 O          62.5945   91.4337    9.1945 O.2     1  UNL1       -0.2727
      4 N          63.6675   91.0581   11.4660 N.am    1  UNL1       -0.2501
      5 C          64.1175   90.3762   12.7240 C.ar    1  UNL1        0.0679
      6 C          64.8709   91.3163   13.6176 C.ar    1  UNL1        0.0162
      7 C          65.4101   90.8323   14.9310 C.ar    1  UNL1        0.0014
      8 C          65.1959   89.4083   15.3508 C.ar    1  UNL1        0.0014
      9 C          64.4425   88.4682   14.4572 C.ar    1  UNL1        0.0162
     10 C          63.9033   88.9521   13.1438 C.ar    1  UNL1        0.0676
     11 N          63.1863   87.8584   12.4092 N.am    1  UNL1       -0.2556
     12 C          63.1436   86.5286   13.1020 C.2     1  UNL1        0.2535
     13 O          62.4508   85.3669   12.4534 O.2     1  UNL1       -0.2726
     14 C          62.5063   87.9184   11.0735 C.3     1  UNL1        0.1067
     15 C          61.8736   86.6409   10.6073 C.3     1  UNL1        0.0242
     16 C          60.1897   89.2268    8.7452 C.2     1  UNL1        0.2371
     17 O          59.4963   89.8932    9.8964 O.2     1  UNL1       -0.2737
     18 N          61.6292   88.8239    8.8682 N.am    1  UNL1       -0.2959
     19 H          62.0843   88.3865    8.1126 H       1  UNL1        0.1499
     20 C          59.4434   88.9635    7.4709 C.3     1  UNL1        0.1316
     21 C          59.4726   89.9734    6.3622 C.3     1  UNL1        0.0270
     22 C          59.2515   86.3903    7.7739 C.3     1  UNL1        0.0862
     23 N          58.6679   87.6902    7.3054 N.3     1  UNL1       -0.2902
     24 H          57.7874   87.8147    7.8050 H       1  UNL1        0.1237
     25 C          64.0424   92.5051   11.3403 C.3     1  UNL1        0.1457
     26 C          65.3405   92.8902   10.6948 C.ar    1  UNL1        0.1004
     27 N          66.4476   91.9528   10.3131 N.ar    1  UNL1       -0.1719
     28 N          67.5507   92.7636    9.7001 N.ar    1  UNL1       -0.2491
     29 C          68.8509   92.2296    9.1762 C.3     1  UNL1        0.1537
     30 C          67.1254   94.2021    9.7030 C.ar    1  UNL1        0.0791
     31 C          67.8056   95.4508    9.2252 C.ar    1  UNL1        0.0188
     32 C          67.1196   96.7777    9.3623 C.ar    1  UNL1        0.0015
     33 C          65.7537   96.8559    9.9771 C.ar    1  UNL1        0.0001
     34 C          65.0735   95.6072   10.4548 C.ar    1  UNL1        0.0028
     35 C          65.7595   94.2803   10.3178 C.ar    1  UNL1        0.0342
     36 C          63.7936   86.3605   14.4434 C.3     1  UNL1        0.2357
     37 S          63.8787   85.0005   15.0704 S.O2    1  UNL1        0.0007
     38 C          63.9637   83.6405   15.6974 C.3     1  UNL1        0.1766
     39 O          65.1563   84.7388   14.3293 O.2     1  UNL1       -0.1725
     40 O          62.6010   85.2622   15.8114 O.2     1  UNL1       -0.1725
@<TRIPOS>BOND
     1    22    23    1
     2    23    20    1
     3    20    21    1
     4    20    16    1
     5    16    17    2
     6    16    18   am
     7     1    18    1
     8     1     2    1
     9     2     3    2
    10     2     4   am
    11     4    25    1
    12    25    26    1
    13    26    27   ar
    14    27    28   ar
    15    28    29    1
    16    28    30   ar
    17    30    31   ar
    18    31    32   ar
    19    32    33   ar
    20    33    34   ar
    21    34    35   ar
    22     4     5    1
    23     5     6   ar
    24     6     7   ar
    25     7     8   ar
    26     8     9   ar
    27     9    10   ar
    28    10    11    1
    29    11    12   am
    30    12    13    2
    31    12    36    1
    32    36    37    1
    33    37    38    1
    34    37    39    2
    35    37    40    2
    36    11    14    1
    37    14    15    1
    38    14     1    1
    39    35    26   ar
    40    10     5   ar
    41    35    30   ar
    42    23    24    1
    43    18    19    1
@<TRIPOS>MOLECULE
*****
 40 43 0 0 0
SMALL
GASTEIGER

@<TRIPOS>ATOM
      1 C          62.2424   87.6625   10.6630 C.3     1  UNL1        0.1678
      2 C          62.4981   88.8114   11.5928 C.2     1  UNL1        0.2492
      3 O          62.1514   90.1698   11.0596 O.2     1  UNL1       -0.2727
      4 N          63.0548   88.7814   12.9854 N.am    1  UNL1       -0.2501
      5 C          63.4931   87.5952   13.7921 C.ar    1  UNL1        0.0679
      6 C          63.9906   88.0068   15.1460 C.ar    1  UNL1        0.0162
      7 C          64.4780   86.9691   16.1132 C.ar    1  UNL1        0.0014
      8 C          64.4680   85.5198   15.7266 C.ar    1  UNL1        0.0014
      9 C          63.9705   85.1083   14.3727 C.ar    1  UNL1        0.0162
     10 C          63.4831   86.1459   13.4054 C.ar    1  UNL1        0.0676
     11 N          63.0323   85.5250   12.1166 N.am    1  UNL1       -0.2556
     12 C          63.1490   84.0316   12.0378 C.2     1  UNL1        0.2535
     13 O          62.7254   83.3108   10.7924 O.2     1  UNL1       -0.2726
     14 C          62.4801   86.1998   10.8960 C.3     1  UNL1        0.1067
     15 C          62.1177   85.2922    9.7582 C.3     1  UNL1        0.0242
     16 C          60.2137   88.3401    9.1882 C.2     1  UNL1        0.2371
     17 O          59.3222   88.2947   10.3937 O.2     1  UNL1       -0.2737
     18 N          61.6738   88.0239    9.3228 N.am    1  UNL1       -0.2959
     19 H          62.2589   88.0537    8.5316 H       1  UNL1        0.1499
     20 C          59.6451   88.7016    7.8480 C.3     1  UNL1        0.1316
     21 C          59.8421   90.0830    7.2976 C.3     1  UNL1        0.0270
     22 C          58.9420   86.2334    7.4435 C.3     1  UNL1        0.0862
     23 N          58.8794   87.6817    7.0584 N.3     1  UNL1       -0.2902
     24 H          57.8975   87.9549    7.0984 H       1  UNL1        0.1237
     25 C          63.1911   90.1139   13.6606 C.3     1  UNL1        0.1457
     26 C          64.5156   90.8178   13.6702 C.ar    1  UNL1        0.1004
     27 N          65.5185   90.7942   14.7854 N.ar    1  UNL1       -0.1719
     28 N          66.6926   91.6307   14.3707 N.ar    1  UNL1       -0.2491
     29 C          67.9272   91.8824   15.1846 C.3     1  UNL1        0.1537
     30 C          66.4152   92.1714   12.9993 C.ar    1  UNL1        0.0791
     31 C          67.2140   93.0563   12.0888 C.ar    1  UNL1        0.0188
     32 C          66.6673   93.4388   10.7454 C.ar    1  UNL1        0.0015
     33 C          65.3218   92.9364   10.3125 C.ar    1  UNL1        0.0001
     34 C          64.5231   92.0515   11.2229 C.ar    1  UNL1        0.0028
     35 C          65.0698   91.6690   12.5664 C.ar    1  UNL1        0.0342
     36 C          63.6895   83.2589   13.2044 C.3     1  UNL1        0.2357
     37 S          63.2017   81.8659   13.4721 S.O2    1  UNL1        0.0007
     38 C          62.7139   80.4731   13.7398 C.3     1  UNL1        0.1766
     39 O          64.4262   81.3096   12.8081 O.2     1  UNL1       -0.1725
     40 O          61.9772   82.4224   14.1362 O.2     1  UNL1       -0.1725
@<TRIPOS>BOND
     1    22    23    1
     2    23    20    1
     3    20    21    1
     4    20    16    1
     5    16    17    2
     6    16    18   am
     7     1    18    1
     8     1     2    1
     9     2     3    2
    10     2     4   am
    11     4    25    1
    12    25    26    1
    13    26    27   ar
    14    27    28   ar
    15    28    29    1
    16    28    30   ar
    17    30    31   ar
    18    31    32   ar
    19    32    33   ar
    20    33    34   ar
    21    34    35   ar
    22     4     5    1
    23     5     6   ar
    24     6     7   ar
    25     7     8   ar
    26     8     9   ar
    27     9    10   ar
    28    10    11    1
    29    11    12   am
    30    12    13    2
    31    12    36    1
    32    36    37    1
    33    37    38    1
    34    37    39    2
    35    37    40    2
    36    11    14    1
    37    14    15    1
    38    14     1    1
    39    35    26   ar
    40    10     5   ar
    41    35    30   ar
    42    23    24    1
    43    18    19    1
@<TRIPOS>MOLECULE
*****
 40 43 0 0 0
SMALL
GASTEIGER

@<TRIPOS>ATOM
      1 C          60.1141   94.1895   -1.4285 C.3     1  UNL1        0.1678
      2 C          58.7991   93.7565   -2.0059 C.2     1  UNL1        0.2492
      3 O          57.7669   93.3119   -1.0126 O.2     1  UNL1       -0.2727
      4 N          58.3801   93.7092   -3.4454 N.am    1  UNL1       -0.2501
      5 C          59.1723   94.0833   -4.6630 C.ar    1  UNL1        0.0679
      6 C          58.3745   93.8860   -5.9178 C.ar    1  UNL1        0.0162
      7 C          58.9839   94.2025   -7.2514 C.ar    1  UNL1        0.0014
      8 C          60.3909   94.7163   -7.3301 C.ar    1  UNL1        0.0014
      9 C          61.1887   94.9136   -6.0753 C.ar    1  UNL1        0.0162
     10 C          60.5793   94.5971   -4.7417 C.ar    1  UNL1        0.0676
     11 N          61.5416   94.8636   -3.6224 N.am    1  UNL1       -0.2556
     12 C          62.8892   95.3798   -4.0317 C.2     1  UNL1        0.2535
     13 O          63.9260   95.6789   -2.9897 O.2     1  UNL1       -0.2726
     14 C          61.3347   94.6823   -2.1478 C.3     1  UNL1        0.1067
     15 C          62.5025   95.0410   -1.2776 C.3     1  UNL1        0.0242
     16 C          60.6547   92.8462    0.7287 C.2     1  UNL1        0.2371
     17 O          60.9778   91.6405   -0.1031 O.2     1  UNL1       -0.2737
     18 N          60.2228   94.1207    0.0660 N.am    1  UNL1       -0.2959
     19 H          60.0108   94.9121    0.6119 H       1  UNL1        0.1499
     20 C          60.7635   92.7774    2.2231 C.3     1  UNL1        0.1316
     21 C          62.0746   92.4316    2.8646 C.3     1  UNL1        0.0270
     22 C          59.3796   92.3269    4.3753 C.3     1  UNL1        0.0862
     23 N          59.5612   93.0545    3.0762 N.3     1  UNL1       -0.2902
     24 H          59.5795   94.0502    3.2964 H       1  UNL1        0.1237
     25 C          56.9841   93.2237   -3.7012 C.3     1  UNL1        0.1457
     26 C          55.9054   94.2000   -4.0664 C.ar    1  UNL1        0.1004
     27 N          55.4553   94.5371   -5.4570 N.ar    1  UNL1       -0.1719
     28 N          54.3593   95.5561   -5.3552 N.ar    1  UNL1       -0.2491
     29 C          53.6203   96.1740   -6.5051 C.3     1  UNL1        0.1537
     30 C          54.1321   95.8488   -3.9017 C.ar    1  UNL1        0.0791
     31 C          53.1785   96.7703   -3.2005 C.ar    1  UNL1        0.0188
     32 C          53.1805   96.8536   -1.7028 C.ar    1  UNL1        0.0015
     33 C          54.1360   96.0154   -0.9064 C.ar    1  UNL1        0.0001
     34 C          55.0896   95.0940   -1.6075 C.ar    1  UNL1        0.0028
     35 C          55.0876   95.0107   -3.1052 C.ar    1  UNL1        0.0342
     36 C          63.2001   95.5971   -5.4830 C.3     1  UNL1        0.2357
     37 S          64.5983   95.3985   -5.9884 S.O2    1  UNL1        0.0007
     38 C          65.9965   95.2000   -6.4938 C.3     1  UNL1        0.1766
     39 O          64.5168   93.9414   -5.6414 O.2     1  UNL1       -0.1725
     40 O          64.6798   96.8555   -6.3354 O.2     1  UNL1       -0.1725
@<TRIPOS>BOND
     1    22    23    1
     2    23    20    1
     3    20    21    1
     4    20    16    1
     5    16    17    2
     6    16    18   am
     7     1    18    1
     8     1     2    1
     9     2     3    2
    10     2     4   am
    11     4    25    1
    12    25    26    1
    13    26    27   ar
    14    27    28   ar
    15    28    29    1
    16    28    30   ar
    17    30    31   ar
    18    31    32   ar
    19    32    33   ar
    20    33    34   ar
    21    34    35   ar
    22     4     5    1
    23     5     6   ar
    24     6     7   ar
    25     7     8   ar
    26     8     9   ar
    27     9    10   ar
    28    10    11    1
    29    11    12   am
    30    12    13    2
    31    12    36    1
    32    36    37    1
    33    37    38    1
    34    37    39    2
    35    37    40    2
    36    11    14    1
    37    14    15    1
    38    14     1    1
    39    35    26   ar
    40    10     5   ar
    41    35    30   ar
    42    23    24    1
    43    18    19    1
@<TRIPOS>MOLECULE
*****
 40 43 0 0 0
SMALL
GASTEIGER

@<TRIPOS>ATOM
      1 C          60.3947   94.3152   -2.8997 C.3     1  UNL1        0.1678
      2 C          61.3376   95.2199   -3.6363 C.2     1  UNL1        0.2492
      3 O          60.9019   95.6343   -5.0104 O.2     1  UNL1       -0.2727
      4 N          62.6586   95.7649   -3.1803 N.am    1  UNL1       -0.2501
      5 C          63.3631   95.5399   -1.8753 C.ar    1  UNL1        0.0679
      6 C          64.6703   96.2736   -1.8245 C.ar    1  UNL1        0.0162
      7 C          65.5349   96.1817   -0.6022 C.ar    1  UNL1        0.0014
      8 C          65.0923   95.3561    0.5692 C.ar    1  UNL1        0.0014
      9 C          63.7850   94.6223    0.5185 C.ar    1  UNL1        0.0162
     10 C          62.9204   94.7142   -0.7038 C.ar    1  UNL1        0.0676
     11 N          61.6640   93.9097   -0.5481 N.am    1  UNL1       -0.2556
     12 C          61.5115   93.1872    0.7576 C.2     1  UNL1        0.2535
     13 O          60.2912   92.3539    1.0156 O.2     1  UNL1       -0.2726
     14 C          60.5400   93.7321   -1.5253 C.3     1  UNL1        0.1067
     15 C          59.4121   92.8555   -1.0677 C.3     1  UNL1        0.0242
     16 C          57.9828   94.8973   -3.6701 C.2     1  UNL1        0.2371
     17 O          58.0787   96.2208   -2.9705 O.2     1  UNL1       -0.2737
     18 N          59.1408   93.9446   -3.6347 N.am    1  UNL1       -0.2959
     19 H          59.0778   93.0760   -4.0938 H       1  UNL1        0.1499
     20 C          56.7288   94.5267   -4.4051 C.3     1  UNL1        0.1316
     21 C          56.7987   94.1086   -5.8440 C.3     1  UNL1        0.0270
     22 C          55.3126   94.2002   -2.2516 C.3     1  UNL1        0.0862
     23 N          55.4051   94.5743   -3.7013 N.3     1  UNL1       -0.2902
     24 H          55.0637   95.5321   -3.7806 H       1  UNL1        0.1237
     25 C          63.3692   96.6523   -4.1589 C.3     1  UNL1        0.1457
     26 C          64.4465   96.0887   -5.0374 C.ar    1  UNL1        0.1004
     27 N          65.5890   96.8560   -5.6340 N.ar    1  UNL1       -0.1719
     28 N          66.4191   95.9003   -6.4388 N.ar    1  UNL1       -0.2491
     29 C          67.6607   96.2425   -7.2079 C.3     1  UNL1        0.1537
     30 C          65.7896   94.5424   -6.3396 C.ar    1  UNL1        0.0791
     31 C          66.1690   93.2149   -6.9261 C.ar    1  UNL1        0.0188
     32 C          65.3293   92.0039   -6.6463 C.ar    1  UNL1        0.0015
     33 C          64.1102   92.1204   -5.7802 C.ar    1  UNL1        0.0001
     34 C          63.7308   93.4477   -5.1937 C.ar    1  UNL1        0.0028
     35 C          64.5705   94.6588   -5.4735 C.ar    1  UNL1        0.0342
     36 C          62.5793   93.2980    1.8053 C.3     1  UNL1        0.2357
     37 S          63.0192   92.0783    2.5596 S.O2    1  UNL1        0.0007
     38 C          63.4590   90.8588    3.3140 C.3     1  UNL1        0.1766
     39 O          64.2881   92.0418    1.7605 O.2     1  UNL1       -0.1725
     40 O          61.7503   92.1150    3.3587 O.2     1  UNL1       -0.1725
@<TRIPOS>BOND
     1    22    23    1
     2    23    20    1
     3    20    21    1
     4    20    16    1
     5    16    17    2
     6    16    18   am
     7     1    18    1
     8     1     2    1
     9     2     3    2
    10     2     4   am
    11     4    25    1
    12    25    26    1
    13    26    27   ar
    14    27    28   ar
    15    28    29    1
    16    28    30   ar
    17    30    31   ar
    18    31    32   ar
    19    32    33   ar
    20    33    34   ar
    21    34    35   ar
    22     4     5    1
    23     5     6   ar
    24     6     7   ar
    25     7     8   ar
    26     8     9   ar
    27     9    10   ar
    28    10    11    1
    29    11    12   am
    30    12    13    2
    31    12    36    1
    32    36    37    1
    33    37    38    1
    34    37    39    2
    35    37    40    2
    36    11    14    1
    37    14    15    1
    38    14     1    1
    39    35    26   ar
    40    10     5   ar
    41    35    30   ar
    42    23    24    1
    43    18    19    1
