@<TRIPOS>MOLECULE
*****
 25 28 0 0 0
SMALL
GASTEIGER

@<TRIPOS>ATOM
      1 C          64.1161   91.1596   12.6888 C.ar    1  UNL1        0.1386
      2 C          63.6216   89.8265   13.1669 C.ar    1  UNL1        0.0369
      3 C          62.8454   88.9382   12.2404 C.ar    1  UNL1        0.0043
      4 C          62.5638   89.3829   10.8358 C.ar    1  UNL1        0.0152
      5 C          63.0583   90.7159   10.3577 C.ar    1  UNL1        0.0043
      6 C          63.8344   91.6042   11.2842 C.ar    1  UNL1        0.0369
      7 C          61.7876   88.4946    9.9092 C.2     1  UNL1        0.0763
      8 N          60.6383   89.0523    9.1231 N.2     1  UNL1       -0.1836
      9 N          59.8621   88.1640    8.1966 N.am    1  UNL1       -0.2062
     10 C          60.2353   86.7180    8.0562 C.2     1  UNL1        0.2410
     11 O          59.4591   85.8296    7.1297 O.2     1  UNL1       -0.2734
     12 C          61.3846   86.1602    8.8423 C.3     1  UNL1        0.0841
     13 C          62.5340   85.6025    9.6284 C.3     1  UNL1        0.0160
     14 C          62.1608   87.0485    9.7688 C.3     1  UNL1        0.0509
     15 H          59.1077   88.5300    7.6807 H       1  UNL1        0.1772
     16 O          64.8923   92.0479   13.6153 O.3     1  UNL1       -0.4754
     17 C          66.2544   91.6327   14.0865 C.3     1  UNL1        0.2068
     18 C          67.4784   92.1442   13.3863 C.3     1  UNL1        0.0646
     19 C          67.6088   91.9963   11.8994 C.3     1  UNL1        0.0759
     20 C          68.6433   92.3878    8.8292 C.3     1  UNL1        0.0173
     21 C          67.7574   93.3307    9.5880 C.3     1  UNL1        0.0576
     22 C          67.1914   94.6193    9.0689 C.3     1  UNL1        0.0174
     23 C          66.3660   95.2356   10.1593 C.3     1  UNL1        0.0187
     24 C          66.4219   94.3281   11.3522 C.3     1  UNL1        0.0721
     25 N          67.2818   93.1508   10.9992 N.3     1  UNL1       -0.2738
@<TRIPOS>BOND
     1    21    20    1
     2    21    22    1
     3    22    23    1
     4    23    24    1
     5    24    25    1
     6    25    19    1
     7    19    18    1
     8    18    17    1
     9    17    16    1
    10    16     1    1
    11     1     2   ar
    12     2     3   ar
    13     3     4   ar
    14     4     7    1
    15     7     8    2
    16     8     9    1
    17     9    10   am
    18    10    11    2
    19    10    12    1
    20    12    13    1
    21    14    13    1
    22     4     5   ar
    23     5     6   ar
    24    25    21    1
    25     6     1   ar
    26    14     7    1
    27    14    12    1
    28     9    15    1
@<TRIPOS>MOLECULE
*****
 25 28 0 0 0
SMALL
GASTEIGER

@<TRIPOS>ATOM
      1 C          63.7157   89.5949   13.3194 C.ar    1  UNL1        0.1386
      2 C          64.3604   88.9440   14.5072 C.ar    1  UNL1        0.0369
      3 C          64.3543   87.4498   14.6389 C.ar    1  UNL1        0.0043
      4 C          63.7035   86.6065   13.5828 C.ar    1  UNL1        0.0152
      5 C          63.0588   87.2574   12.3951 C.ar    1  UNL1        0.0043
      6 C          63.0649   88.7516   12.2634 C.ar    1  UNL1        0.0369
      7 C          63.6974   85.1123   13.7144 C.2     1  UNL1        0.0763
      8 N          63.6717   84.4793   15.0740 N.2     1  UNL1       -0.1836
      9 N          63.6656   82.9851   15.2057 N.am    1  UNL1       -0.2062
     10 C          63.6852   82.1239   13.9777 C.2     1  UNL1        0.2410
     11 O          63.6791   80.6297   14.1094 O.2     1  UNL1       -0.2734
     12 C          63.7109   82.7569   12.6180 C.3     1  UNL1        0.0841
     13 C          63.7367   83.3899   11.2584 C.3     1  UNL1        0.0160
     14 C          63.7170   84.2511   12.4864 C.3     1  UNL1        0.0509
     15 H          63.6487   82.5696   16.0981 H       1  UNL1        0.1772
     16 O          63.7218   91.0891   13.1878 O.3     1  UNL1       -0.4754
     17 C          64.6189   91.7499   12.1835 C.3     1  UNL1        0.2068
     18 C          65.7598   92.6067   12.6462 C.3     1  UNL1        0.0646
     19 C          67.0065   92.7067   11.8182 C.3     1  UNL1        0.0759
     20 C          68.5553   92.4214    8.9600 C.3     1  UNL1        0.0173
     21 C          67.8395   93.6423    9.4568 C.3     1  UNL1        0.0576
     22 C          67.7099   94.9465    8.7272 C.3     1  UNL1        0.0174
     23 C          66.9179   95.8837    9.5900 C.3     1  UNL1        0.0187
     24 C          66.5581   95.1587   10.8530 C.3     1  UNL1        0.0721
     25 N          67.1276   93.7735   10.7707 N.3     1  UNL1       -0.2738
@<TRIPOS>BOND
     1    21    20    1
     2    21    22    1
     3    22    23    1
     4    23    24    1
     5    24    25    1
     6    25    19    1
     7    19    18    1
     8    18    17    1
     9    17    16    1
    10    16     1    1
    11     1     2   ar
    12     2     3   ar
    13     3     4   ar
    14     4     7    1
    15     7     8    2
    16     8     9    1
    17     9    10   am
    18    10    11    2
    19    10    12    1
    20    12    13    1
    21    14    13    1
    22     4     5   ar
    23     5     6   ar
    24    25    21    1
    25     6     1   ar
    26    14     7    1
    27    14    12    1
    28     9    15    1
@<TRIPOS>MOLECULE
*****
 25 28 0 0 0
SMALL
GASTEIGER

@<TRIPOS>ATOM
      1 C          63.3052   88.2075   16.2381 C.ar    1  UNL1        0.1386
      2 C          63.1303   89.6223   16.7051 C.ar    1  UNL1        0.0369
      3 C          63.7063   90.7528   15.9049 C.ar    1  UNL1        0.0043
      4 C          64.4571   90.4686   14.6378 C.ar    1  UNL1        0.0152
      5 C          64.6320   89.0539   14.1709 C.ar    1  UNL1        0.0043
      6 C          64.0560   87.9234   14.9710 C.ar    1  UNL1        0.0369
      7 C          65.0330   91.5991   13.8377 C.2     1  UNL1        0.0763
      8 N          65.9063   92.6207   14.5037 N.2     1  UNL1       -0.1836
      9 N          66.4822   93.7512   13.7035 N.am    1  UNL1       -0.2062
     10 C          66.1849   93.8601   12.2374 C.2     1  UNL1        0.2410
     11 O          66.7608   94.9906   11.4372 O.2     1  UNL1       -0.2734
     12 C          65.3115   92.8385   11.5713 C.3     1  UNL1        0.0841
     13 C          64.4382   91.8168   10.9053 C.3     1  UNL1        0.0160
     14 C          64.7356   91.7079   12.3714 C.3     1  UNL1        0.0509
     15 H          67.0554   94.4217   14.1407 H       1  UNL1        0.1772
     16 O          62.7293   87.0770   17.0383 O.3     1  UNL1       -0.4754
     17 C          63.2057   85.6740   16.8048 C.3     1  UNL1        0.2068
     18 C          62.5938   84.8459   15.7140 C.3     1  UNL1        0.0646
     19 C          63.4693   84.2039   14.6789 C.3     1  UNL1        0.0759
     20 C          64.3608   83.2921   11.6750 C.3     1  UNL1        0.0173
     21 C          63.4076   82.5598   12.5722 C.3     1  UNL1        0.0576
     22 C          62.6967   81.2798   12.2462 C.3     1  UNL1        0.0174
     23 C          61.8475   80.9078   13.4255 C.3     1  UNL1        0.0187
     24 C          62.0336   81.9579   14.4803 C.3     1  UNL1        0.0721
     25 N          62.9977   82.9789   13.9530 N.3     1  UNL1       -0.2738
@<TRIPOS>BOND
     1    21    20    1
     2    21    22    1
     3    22    23    1
     4    23    24    1
     5    24    25    1
     6    25    19    1
     7    19    18    1
     8    18    17    1
     9    17    16    1
    10    16     1    1
    11     1     2   ar
    12     2     3   ar
    13     3     4   ar
    14     4     7    1
    15     7     8    2
    16     8     9    1
    17     9    10   am
    18    10    11    2
    19    10    12    1
    20    12    13    1
    21    14    13    1
    22     4     5   ar
    23     5     6   ar
    24    25    21    1
    25     6     1   ar
    26    14     7    1
    27    14    12    1
    28     9    15    1
@<TRIPOS>MOLECULE
*****
 25 28 0 0 0
SMALL
GASTEIGER

@<TRIPOS>ATOM
      1 C          62.4262   90.4988   10.8888 C.ar    1  UNL1        0.1386
      2 C          62.4899   90.0376   12.3148 C.ar    1  UNL1        0.0369
      3 C          63.5900   90.5229   13.2116 C.ar    1  UNL1        0.0043
      4 C          64.6266   91.4693   12.6823 C.ar    1  UNL1        0.0152
      5 C          64.5628   91.9304   11.2564 C.ar    1  UNL1        0.0043
      6 C          63.4626   91.4452   10.3597 C.ar    1  UNL1        0.0369
      7 C          65.7267   91.9545   13.5790 C.2     1  UNL1        0.0763
      8 N          65.3968   92.5554   14.9132 N.2     1  UNL1       -0.1836
      9 N          66.4970   93.0407   15.8099 N.am    1  UNL1       -0.2062
     10 C          67.9271   92.9250   15.3725 C.2     1  UNL1        0.2410
     11 O          69.0273   93.4102   16.2692 O.2     1  UNL1       -0.2734
     12 C          68.2571   92.3240   14.0383 C.3     1  UNL1        0.0841
     13 C          68.5870   91.7231   12.7042 C.3     1  UNL1        0.0160
     14 C          67.1569   91.8388   13.1416 C.3     1  UNL1        0.0509
     15 H          66.2805   93.4351   16.6856 H       1  UNL1        0.1772
     16 O          61.3260   90.0136    9.9921 O.3     1  UNL1       -0.4754
     17 C          60.1335   89.3169   10.5775 C.3     1  UNL1        0.2068
     18 C          60.0036   87.8271   10.4616 C.3     1  UNL1        0.0646
     19 C          61.0205   86.9331   11.1068 C.3     1  UNL1        0.0759
     20 C          62.6663   84.2991   12.1086 C.3     1  UNL1        0.0173
     21 C          62.6660   84.8626   10.7185 C.3     1  UNL1        0.0576
     22 C          63.4221   84.3143    9.5447 C.3     1  UNL1        0.0174
     23 C          63.1330   85.1861    8.3588 C.3     1  UNL1        0.0187
     24 C          62.1981   86.2732    8.7997 C.3     1  UNL1        0.0721
     25 N          61.9095   86.0733   10.2580 N.3     1  UNL1       -0.2738
@<TRIPOS>BOND
     1    21    20    1
     2    21    22    1
     3    22    23    1
     4    23    24    1
     5    24    25    1
     6    25    19    1
     7    19    18    1
     8    18    17    1
     9    17    16    1
    10    16     1    1
    11     1     2   ar
    12     2     3   ar
    13     3     4   ar
    14     4     7    1
    15     7     8    2
    16     8     9    1
    17     9    10   am
    18    10    11    2
    19    10    12    1
    20    12    13    1
    21    14    13    1
    22     4     5   ar
    23     5     6   ar
    24    25    21    1
    25     6     1   ar
    26    14     7    1
    27    14    12    1
    28     9    15    1
@<TRIPOS>MOLECULE
*****
 25 28 0 0 0
SMALL
GASTEIGER

@<TRIPOS>ATOM
      1 C          62.7115   90.4478   10.8474 C.ar    1  UNL1        0.1386
      2 C          62.8641   89.8542   12.2165 C.ar    1  UNL1        0.0369
      3 C          63.9509   90.3414   13.1284 C.ar    1  UNL1        0.0043
      4 C          64.8852   91.4222   12.6711 C.ar    1  UNL1        0.0152
      5 C          64.7326   92.0157   11.3020 C.ar    1  UNL1        0.0043
      6 C          63.6458   91.5285   10.3902 C.ar    1  UNL1        0.0369
      7 C          65.9720   91.9094   13.5829 C.2     1  UNL1        0.0763
      8 N          67.3528   92.1435   13.0458 N.2     1  UNL1       -0.1836
      9 N          68.4396   92.6307   13.9576 N.am    1  UNL1       -0.2062
     10 C          68.1457   92.8838   15.4065 C.2     1  UNL1        0.2410
     11 O          69.2325   93.3710   16.3184 O.2     1  UNL1       -0.2734
     12 C          66.7648   92.6496   15.9437 C.3     1  UNL1        0.0841
     13 C          65.3840   92.4155   16.4809 C.3     1  UNL1        0.0160
     14 C          65.6780   92.1624   15.0319 C.3     1  UNL1        0.0509
     15 H          69.3459   92.7844   13.6050 H       1  UNL1        0.1772
     16 O          61.6247   89.9606    9.9356 O.3     1  UNL1       -0.4754
     17 C          60.3846   89.3425   10.5101 C.3     1  UNL1        0.2068
     18 C          59.8868   88.0299    9.9817 C.3     1  UNL1        0.0646
     19 C          60.8073   87.1370    9.2035 C.3     1  UNL1        0.0759
     20 C          62.9411   85.0956    7.8147 C.3     1  UNL1        0.0173
     21 C          62.6466   85.1990    9.2818 C.3     1  UNL1        0.0576
     22 C          63.2811   84.3822   10.3682 C.3     1  UNL1        0.0174
     23 C          62.6925   84.8157   11.6780 C.3     1  UNL1        0.0187
     24 C          61.6941   85.9004   11.4011 C.3     1  UNL1        0.0721
     25 N          61.6657   86.1373    9.9202 N.3     1  UNL1       -0.2738
@<TRIPOS>BOND
     1    21    20    1
     2    21    22    1
     3    22    23    1
     4    23    24    1
     5    24    25    1
     6    25    19    1
     7    19    18    1
     8    18    17    1
     9    17    16    1
    10    16     1    1
    11     1     2   ar
    12     2     3   ar
    13     3     4   ar
    14     4     7    1
    15     7     8    2
    16     8     9    1
    17     9    10   am
    18    10    11    2
    19    10    12    1
    20    12    13    1
    21    14    13    1
    22     4     5   ar
    23     5     6   ar
    24    25    21    1
    25     6     1   ar
    26    14     7    1
    27    14    12    1
    28     9    15    1
@<TRIPOS>MOLECULE
*****
 25 28 0 0 0
SMALL
GASTEIGER

@<TRIPOS>ATOM
      1 C          62.1379   89.6044   10.3818 C.ar    1  UNL1        0.1386
      2 C          62.8687   90.8230    9.9011 C.ar    1  UNL1        0.0369
      3 C          63.8165   91.5391   10.8170 C.ar    1  UNL1        0.0043
      4 C          64.0334   91.0367   12.2136 C.ar    1  UNL1        0.0152
      5 C          63.3027   89.8182   12.6943 C.ar    1  UNL1        0.0043
      6 C          62.3549   89.1020   11.7784 C.ar    1  UNL1        0.0369
      7 C          64.9812   91.7529   13.1295 C.2     1  UNL1        0.0763
      8 N          65.2539   91.2093   14.5006 N.2     1  UNL1       -0.1836
      9 N          66.2017   91.9254   15.4165 N.am    1  UNL1       -0.2062
     10 C          66.8768   93.1852   14.9613 C.2     1  UNL1        0.2410
     11 O          67.8245   93.9013   15.8772 O.2     1  UNL1       -0.2734
     12 C          66.6041   93.7288   13.5900 C.3     1  UNL1        0.0841
     13 C          66.3313   94.2724   12.2189 C.3     1  UNL1        0.0160
     14 C          65.6563   93.0127   12.6742 C.3     1  UNL1        0.0509
     15 H          66.3807   91.5686   16.3165 H       1  UNL1        0.1772
     16 O          61.1901   88.8882    9.4659 O.3     1  UNL1       -0.4754
     17 C          61.1009   87.3913    9.5004 C.3     1  UNL1        0.2068
     18 C          62.3210   86.5609    9.2324 C.3     1  UNL1        0.0646
     19 C          62.3515   85.1185    9.6428 C.3     1  UNL1        0.0759
     20 C          64.2153   82.5115   10.2589 C.3     1  UNL1        0.0173
     21 C          63.7677   83.5323   11.2626 C.3     1  UNL1        0.0576
     22 C          64.0981   83.5341   12.7258 C.3     1  UNL1        0.0174
     23 C          63.4456   84.7335   13.3469 C.3     1  UNL1        0.0187
     24 C          62.7119   85.4730   12.2676 C.3     1  UNL1        0.0721
     25 N          62.9109   84.7306   10.9794 N.3     1  UNL1       -0.2738
@<TRIPOS>BOND
     1    21    20    1
     2    21    22    1
     3    22    23    1
     4    23    24    1
     5    24    25    1
     6    25    19    1
     7    19    18    1
     8    18    17    1
     9    17    16    1
    10    16     1    1
    11     1     2   ar
    12     2     3   ar
    13     3     4   ar
    14     4     7    1
    15     7     8    2
    16     8     9    1
    17     9    10   am
    18    10    11    2
    19    10    12    1
    20    12    13    1
    21    14    13    1
    22     4     5   ar
    23     5     6   ar
    24    25    21    1
    25     6     1   ar
    26    14     7    1
    27    14    12    1
    28     9    15    1
@<TRIPOS>MOLECULE
*****
 25 28 0 0 0
SMALL
GASTEIGER

@<TRIPOS>ATOM
      1 C          63.1277   89.9118   12.3332 C.ar    1  UNL1        0.1386
      2 C          63.1799   88.4385   12.6103 C.ar    1  UNL1        0.0369
      3 C          62.7837   87.4604   11.5444 C.ar    1  UNL1        0.0043
      4 C          62.3354   87.9555   10.2012 C.ar    1  UNL1        0.0152
      5 C          62.2833   89.4288    9.9242 C.ar    1  UNL1        0.0043
      6 C          62.6794   90.4069   10.9902 C.ar    1  UNL1        0.0369
      7 C          61.9393   86.9774    9.1352 C.2     1  UNL1        0.0763
      8 N          62.9510   86.0155    8.5866 N.2     1  UNL1       -0.1836
      9 N          62.5548   85.0374    7.5206 N.am    1  UNL1       -0.2062
     10 C          61.1470   85.0212    7.0033 C.2     1  UNL1        0.2410
     11 O          60.7508   84.0430    5.9373 O.2     1  UNL1       -0.2734
     12 C          60.1352   85.9831    7.5519 C.3     1  UNL1        0.0841
     13 C          59.1235   86.9451    8.1006 C.3     1  UNL1        0.0160
     14 C          60.5313   86.9613    8.6179 C.3     1  UNL1        0.0509
     15 H          63.2189   84.4060    7.1605 H       1  UNL1        0.1772
     16 O          63.5238   90.8899   13.3992 O.3     1  UNL1       -0.4754
     17 C          64.5407   91.9519   13.1023 C.3     1  UNL1        0.2068
     18 C          65.9897   91.5870   12.9709 C.3     1  UNL1        0.0646
     19 C          67.0040   92.6458   12.6547 C.3     1  UNL1        0.0759
     20 C          66.0266   95.2232   10.9078 C.3     1  UNL1        0.0173
     21 C          66.9188   94.1183   10.4253 C.3     1  UNL1        0.0576
     22 C          67.5185   94.0038    9.0551 C.3     1  UNL1        0.0174
     23 C          68.3384   92.7485    9.0112 C.3     1  UNL1        0.0187
     24 C          68.2454   92.0870   10.3543 C.3     1  UNL1        0.0721
     25 N          67.3681   92.9335   11.2282 N.3     1  UNL1       -0.2738
@<TRIPOS>BOND
     1    21    20    1
     2    21    22    1
     3    22    23    1
     4    23    24    1
     5    24    25    1
     6    25    19    1
     7    19    18    1
     8    18    17    1
     9    17    16    1
    10    16     1    1
    11     1     2   ar
    12     2     3   ar
    13     3     4   ar
    14     4     7    1
    15     7     8    2
    16     8     9    1
    17     9    10   am
    18    10    11    2
    19    10    12    1
    20    12    13    1
    21    14    13    1
    22     4     5   ar
    23     5     6   ar
    24    25    21    1
    25     6     1   ar
    26    14     7    1
    27    14    12    1
    28     9    15    1
@<TRIPOS>MOLECULE
*****
 25 28 0 0 0
SMALL
GASTEIGER

@<TRIPOS>ATOM
      1 C          62.3902   88.9528   10.5377 C.ar    1  UNL1        0.1386
      2 C          62.9670   88.7771   11.9112 C.ar    1  UNL1        0.0369
      3 C          63.1286   87.4012   12.4864 C.ar    1  UNL1        0.0043
      4 C          62.7134   86.2011   11.6880 C.ar    1  UNL1        0.0152
      5 C          62.1366   86.3768   10.3146 C.ar    1  UNL1        0.0043
      6 C          61.9751   87.7527    9.7394 C.ar    1  UNL1        0.0369
      7 C          62.8749   84.8252   12.2632 C.2     1  UNL1        0.0763
      8 N          62.4634   84.5513   13.6794 N.2     1  UNL1       -0.1836
      9 N          62.6250   83.1754   14.2546 N.am    1  UNL1       -0.2062
     10 C          63.1980   82.0734   13.4136 C.2     1  UNL1        0.2410
     11 O          63.3596   80.6975   13.9888 O.2     1  UNL1       -0.2734
     12 C          63.6096   82.3473   11.9974 C.3     1  UNL1        0.0841
     13 C          64.0210   82.6213   10.5812 C.3     1  UNL1        0.0160
     14 C          63.4480   83.7232   11.4222 C.3     1  UNL1        0.0509
     15 H          62.3549   82.9956   15.1841 H       1  UNL1        0.1772
     16 O          62.2287   90.3287    9.9625 O.3     1  UNL1       -0.4754
     17 C          62.9963   91.4792   10.5430 C.3     1  UNL1        0.2068
     18 C          64.4919   91.5141   10.4341 C.3     1  UNL1        0.0646
     19 C          65.2805   92.4970   11.2478 C.3     1  UNL1        0.0759
     20 C          68.1023   92.0826    9.6618 C.3     1  UNL1        0.0173
     21 C          67.3708   93.3805    9.8353 C.3     1  UNL1        0.0576
     22 C          67.8078   94.7160    9.3102 C.3     1  UNL1        0.0174
     23 C          66.7809   95.7318    9.7147 C.3     1  UNL1        0.0187
     24 C          65.7092   95.0242   10.4897 C.3     1  UNL1        0.0721
     25 N          66.0737   93.5710   10.5643 N.3     1  UNL1       -0.2738
@<TRIPOS>BOND
     1    21    20    1
     2    21    22    1
     3    22    23    1
     4    23    24    1
     5    24    25    1
     6    25    19    1
     7    19    18    1
     8    18    17    1
     9    17    16    1
    10    16     1    1
    11     1     2   ar
    12     2     3   ar
    13     3     4   ar
    14     4     7    1
    15     7     8    2
    16     8     9    1
    17     9    10   am
    18    10    11    2
    19    10    12    1
    20    12    13    1
    21    14    13    1
    22     4     5   ar
    23     5     6   ar
    24    25    21    1
    25     6     1   ar
    26    14     7    1
    27    14    12    1
    28     9    15    1
@<TRIPOS>MOLECULE
*****
 25 28 0 0 0
SMALL
GASTEIGER

@<TRIPOS>ATOM
      1 C          61.9447   88.0692   10.4165 C.ar    1  UNL1        0.1386
      2 C          62.7308   88.0221   11.6932 C.ar    1  UNL1        0.0369
      3 C          62.9999   86.7057   12.3601 C.ar    1  UNL1        0.0043
      4 C          62.4829   85.4365   11.7503 C.ar    1  UNL1        0.0152
      5 C          61.6969   85.4836   10.4737 C.ar    1  UNL1        0.0043
      6 C          61.4278   86.8000    9.8068 C.ar    1  UNL1        0.0369
      7 C          62.7520   84.1201   12.4172 C.2     1  UNL1        0.0763
      8 N          62.7552   84.0245   13.9141 N.2     1  UNL1       -0.1836
      9 N          63.0243   82.7081   14.5810 N.am    1  UNL1       -0.2062
     10 C          63.2903   81.4874   13.7510 C.2     1  UNL1        0.2410
     11 O          63.5594   80.1710   14.4179 O.2     1  UNL1       -0.2734
     12 C          63.2871   81.5829   12.2540 C.3     1  UNL1        0.0841
     13 C          63.2840   81.6785   10.7571 C.3     1  UNL1        0.0160
     14 C          63.0180   82.8993   11.5871 C.3     1  UNL1        0.0509
     15 H          63.0264   82.6454   15.5635 H       1  UNL1        0.1772
     16 O          61.6756   89.3856    9.7496 O.3     1  UNL1       -0.4754
     17 C          62.1144   90.6617   10.4045 C.3     1  UNL1        0.2068
     18 C          63.5345   91.1249   10.2683 C.3     1  UNL1        0.0646
     19 C          64.1131   92.0756   11.2740 C.3     1  UNL1        0.0759
     20 C          67.0385   92.4736   12.6642 C.3     1  UNL1        0.0173
     21 C          65.8651   91.7608   13.2681 C.3     1  UNL1        0.0576
     22 C          65.8302   91.1056   14.6170 C.3     1  UNL1        0.0174
     23 C          64.4640   90.5177   14.8117 C.3     1  UNL1        0.0187
     24 C          63.6545   90.8096   13.5830 C.3     1  UNL1        0.0721
     25 N          64.5203   91.5778   12.6290 N.3     1  UNL1       -0.2738
@<TRIPOS>BOND
     1    21    20    1
     2    21    22    1
     3    22    23    1
     4    23    24    1
     5    24    25    1
     6    25    19    1
     7    19    18    1
     8    18    17    1
     9    17    16    1
    10    16     1    1
    11     1     2   ar
    12     2     3   ar
    13     3     4   ar
    14     4     7    1
    15     7     8    2
    16     8     9    1
    17     9    10   am
    18    10    11    2
    19    10    12    1
    20    12    13    1
    21    14    13    1
    22     4     5   ar
    23     5     6   ar
    24    25    21    1
    25     6     1   ar
    26    14     7    1
    27    14    12    1
    28     9    15    1
