@<TRIPOS>MOLECULE
*****
 35 38 0 0 0
SMALL
GASTEIGER

@<TRIPOS>ATOM
      1 C          64.5300   90.9519   13.3813 C.3     1  UNL1        0.0503
      2 C          65.6486   91.5310   14.1959 C.ar    1  UNL1       -0.0220
      3 C          67.0127   91.6881   13.5921 C.ar    1  UNL1       -0.0043
      4 C          68.1313   92.2672   14.4067 C.ar    1  UNL1       -0.0003
      5 C          67.8857   92.6892   15.8251 C.ar    1  UNL1       -0.0003
      6 C          66.5216   92.5321   16.4288 C.ar    1  UNL1       -0.0046
      7 C          65.4030   91.9530   15.6142 C.ar    1  UNL1       -0.0255
      8 C          64.0389   91.7960   16.2179 C.3     1  UNL1        0.0307
      9 C          64.2317   89.4837   13.4537 C.ar    1  UNL1       -0.0181
     10 C          63.4314   88.8267   12.3685 C.ar    1  UNL1       -0.0039
     11 C          63.1330   87.3584   12.4407 C.ar    1  UNL1       -0.0003
     12 C          63.6351   86.5472   13.5982 C.ar    1  UNL1       -0.0000
     13 C          64.4355   87.2043   14.6835 C.ar    1  UNL1       -0.0003
     14 C          64.7338   88.6725   14.6112 C.ar    1  UNL1       -0.0039
     15 C          63.3368   85.0790   13.6705 C.ar    1  UNL1        0.0000
     16 C          62.7858   84.4870   14.9338 C.ar    1  UNL1        0.0000
     17 C          62.4874   83.0187   15.0062 C.ar    1  UNL1        0.0000
     18 C          62.7401   82.1424   13.8152 C.ar    1  UNL1        0.0011
     19 C          63.2911   82.7345   12.5519 C.ar    1  UNL1        0.0140
     20 C          63.5894   84.2027   12.4796 C.ar    1  UNL1        0.0011
     21 C          63.5438   81.8583   11.3609 C.2     1  UNL1        0.0729
     22 O          64.5264   82.2849   10.3110 O.co2   1  UNL1       -0.5446
     23 O          62.8138   80.5554   11.2200 O.co2   1  UNL1       -0.5446
     24 C          63.7098   91.8412   12.4944 C.3     1  UNL1        0.0578
     25 C          64.1154   92.0562   11.0664 C.2     1  UNL1        0.0975
     26 N          63.2870   91.4801    9.9566 N.2     1  UNL1       -0.0908
     27 O          62.6192   91.0453    9.9322 O.2     1  UNL1       -0.4090
     28 H          62.2602   90.7839    9.1071 H       1  UNL1        0.3278
     29 C          68.8943   92.3204    9.0435 C.3     1  UNL1        0.0521
     30 C          67.7389   92.9794    9.7368 C.ar    1  UNL1        0.0594
     31 C          66.5049   92.1883   10.0550 C.ar    1  UNL1        0.0160
     32 C          65.3494   92.8474   10.7482 C.ar    1  UNL1        0.0194
     33 C          65.4280   94.2976   11.1233 C.ar    1  UNL1        0.0219
     34 C          66.6621   95.0887   10.8051 C.ar    1  UNL1        0.0985
     35 N          67.8175   94.4296   10.1118 N.ar    1  UNL1       -0.2481
@<TRIPOS>UNITY_ATOM_ATTR
22 1
charge -1
@<TRIPOS>BOND
     1    29    30    1
     2    30    31   ar
     3    31    32   ar
     4    32    25    1
     5    25    24    1
     6    24     1    1
     7     1     9    1
     8     9    10   ar
     9    10    11   ar
    10    11    12   ar
    11    12    15    1
    12    15    16   ar
    13    16    17   ar
    14    17    18   ar
    15    18    19   ar
    16    19    21    1
    17    21    22   ar
    18    21    23   ar
    19    19    20   ar
    20    12    13   ar
    21    13    14   ar
    22     1     2    1
    23     2     3   ar
    24     3     4   ar
    25     4     5   ar
    26     5     6   ar
    27     6     7   ar
    28     7     8    1
    29    25    26    2
    30    26    27    1
    31    32    33   ar
    32    33    34   ar
    33    34    35   ar
    34    35    30   ar
    35    14     9   ar
    36     7     2   ar
    37    20    15   ar
    38    27    28    1
@<TRIPOS>MOLECULE
*****
 35 38 0 0 0
SMALL
GASTEIGER

@<TRIPOS>ATOM
      1 C          62.0114   87.1865   11.2768 C.3     1  UNL1        0.0503
      2 C          61.4439   86.7973    9.9439 C.ar    1  UNL1       -0.0220
      3 C          62.2255   85.9023    9.0285 C.ar    1  UNL1       -0.0043
      4 C          61.6581   85.5131    7.6956 C.ar    1  UNL1       -0.0003
      5 C          60.3090   86.0190    7.2782 C.ar    1  UNL1       -0.0003
      6 C          59.5275   86.9140    8.1936 C.ar    1  UNL1       -0.0046
      7 C          60.0950   87.3032    9.5265 C.ar    1  UNL1       -0.0255
      8 C          59.3134   88.1982   10.4419 C.3     1  UNL1        0.0307
      9 C          62.7537   88.4813   11.4267 C.ar    1  UNL1       -0.0181
     10 C          62.7981   89.4565   10.2879 C.ar    1  UNL1       -0.0039
     11 C          63.5404   90.7514   10.4379 C.ar    1  UNL1       -0.0003
     12 C          64.2382   91.0710   11.7266 C.ar    1  UNL1       -0.0000
     13 C          64.1938   90.0956   12.8655 C.ar    1  UNL1       -0.0003
     14 C          63.4515   88.8009   12.7155 C.ar    1  UNL1       -0.0039
     15 C          64.9805   92.3657   11.8766 C.ar    1  UNL1        0.0000
     16 C          65.6521   92.6991   13.1757 C.ar    1  UNL1        0.0000
     17 C          66.3944   93.9939   13.3258 C.ar    1  UNL1        0.0000
     18 C          66.4651   94.9554   12.1766 C.ar    1  UNL1        0.0011
     19 C          65.7935   94.6220   10.8774 C.ar    1  UNL1        0.0140
     20 C          65.0512   93.3272   10.7274 C.ar    1  UNL1        0.0011
     21 C          65.8641   95.5834    9.7282 C.2     1  UNL1        0.0729
     22 O          66.9617   95.4598    8.7133 O.co2   1  UNL1       -0.5446
     23 O          64.8372   96.6686    9.5939 O.co2   1  UNL1       -0.5446
     24 C          61.8366   86.2809   12.4597 C.3     1  UNL1        0.0578
     25 C          62.9511   85.3675   12.8762 C.2     1  UNL1        0.0975
     26 N          63.9106   85.7948   13.9470 N.2     1  UNL1       -0.0908
     27 O          63.9846   86.4501   14.3949 O.2     1  UNL1       -0.4090
     28 H          64.6770   86.5124   15.0232 H       1  UNL1        0.3278
     29 C          62.3421   80.2083   12.9878 C.3     1  UNL1        0.0521
     30 C          62.8017   81.4471   12.2776 C.ar    1  UNL1        0.0594
     31 C          62.6466   82.7879   12.9319 C.ar    1  UNL1        0.0160
     32 C          63.1062   84.0266   12.2218 C.ar    1  UNL1        0.0194
     33 C          63.7208   83.9246   10.8573 C.ar    1  UNL1        0.0219
     34 C          63.8758   82.5838   10.2030 C.ar    1  UNL1        0.0985
     35 N          63.4163   81.3450   10.9132 N.ar    1  UNL1       -0.2481
@<TRIPOS>UNITY_ATOM_ATTR
22 1
charge -1
@<TRIPOS>BOND
     1    29    30    1
     2    30    31   ar
     3    31    32   ar
     4    32    25    1
     5    25    24    1
     6    24     1    1
     7     1     9    1
     8     9    10   ar
     9    10    11   ar
    10    11    12   ar
    11    12    15    1
    12    15    16   ar
    13    16    17   ar
    14    17    18   ar
    15    18    19   ar
    16    19    21    1
    17    21    22   ar
    18    21    23   ar
    19    19    20   ar
    20    12    13   ar
    21    13    14   ar
    22     1     2    1
    23     2     3   ar
    24     3     4   ar
    25     4     5   ar
    26     5     6   ar
    27     6     7   ar
    28     7     8    1
    29    25    26    2
    30    26    27    1
    31    32    33   ar
    32    33    34   ar
    33    34    35   ar
    34    35    30   ar
    35    14     9   ar
    36     7     2   ar
    37    20    15   ar
    38    27    28    1
@<TRIPOS>MOLECULE
*****
 35 38 0 0 0
SMALL
GASTEIGER

@<TRIPOS>ATOM
      1 C          62.1057   86.8077   11.6961 C.3     1  UNL1        0.0503
      2 C          62.8209   85.5137   11.4427 C.ar    1  UNL1       -0.0220
      3 C          63.2747   84.6692   12.5964 C.ar    1  UNL1       -0.0043
      4 C          63.9899   83.3753   12.3430 C.ar    1  UNL1       -0.0003
      5 C          64.2513   82.9258   10.9359 C.ar    1  UNL1       -0.0003
      6 C          63.7974   83.7703    9.7823 C.ar    1  UNL1       -0.0046
      7 C          63.0822   85.0642   10.0357 C.ar    1  UNL1       -0.0255
      8 C          62.6283   85.9087    8.8821 C.3     1  UNL1        0.0307
      9 C          62.8816   88.0279   12.0946 C.ar    1  UNL1       -0.0181
     10 C          63.6267   88.0508   13.3963 C.ar    1  UNL1       -0.0039
     11 C          64.4026   89.2711   13.7949 C.ar    1  UNL1       -0.0003
     12 C          64.4335   90.4685   12.8919 C.ar    1  UNL1       -0.0000
     13 C          63.6883   90.4455   11.5902 C.ar    1  UNL1       -0.0003
     14 C          62.9124   89.2252   11.1916 C.ar    1  UNL1       -0.0039
     15 C          65.2094   91.6887   13.2904 C.ar    1  UNL1        0.0000
     16 C          65.7484   91.8124   14.6847 C.ar    1  UNL1        0.0000
     17 C          66.5244   93.0327   15.0834 C.ar    1  UNL1        0.0000
     18 C          66.7612   94.1293   14.0877 C.ar    1  UNL1        0.0011
     19 C          66.2221   94.0055   12.6933 C.ar    1  UNL1        0.0140
     20 C          65.4462   92.7853   12.2947 C.ar    1  UNL1        0.0011
     21 C          66.4590   95.1021   11.6976 C.2     1  UNL1        0.0729
     22 O          67.2637   94.8314   10.4610 O.co2   1  UNL1       -0.5446
     23 O          65.8910   96.4694   11.9385 O.co2   1  UNL1       -0.5446
     24 C          60.6145   86.8813   11.5508 C.3     1  UNL1        0.0578
     25 C          59.9859   88.0499   10.8514 C.2     1  UNL1        0.0975
     26 N          59.6056   89.2742   11.6302 N.2     1  UNL1       -0.0908
     27 O          59.6588   89.4806   12.3983 O.2     1  UNL1       -0.4090
     28 H          59.3518   90.3198   12.6803 H       1  UNL1        0.3278
     29 C          59.6679   90.4401    6.2486 C.3     1  UNL1        0.0521
     30 C          59.5785   89.1893    7.0717 C.ar    1  UNL1        0.0594
     31 C          59.8269   89.2450    8.5499 C.ar    1  UNL1        0.0160
     32 C          59.7375   87.9942    9.3731 C.ar    1  UNL1        0.0194
     33 C          59.3997   86.6878    8.7180 C.ar    1  UNL1        0.0219
     34 C          59.1514   86.6321    7.2398 C.ar    1  UNL1        0.0985
     35 N          59.2408   87.8829    6.4167 N.ar    1  UNL1       -0.2481
@<TRIPOS>UNITY_ATOM_ATTR
22 1
charge -1
@<TRIPOS>BOND
     1    29    30    1
     2    30    31   ar
     3    31    32   ar
     4    32    25    1
     5    25    24    1
     6    24     1    1
     7     1     9    1
     8     9    10   ar
     9    10    11   ar
    10    11    12   ar
    11    12    15    1
    12    15    16   ar
    13    16    17   ar
    14    17    18   ar
    15    18    19   ar
    16    19    21    1
    17    21    22   ar
    18    21    23   ar
    19    19    20   ar
    20    12    13   ar
    21    13    14   ar
    22     1     2    1
    23     2     3   ar
    24     3     4   ar
    25     4     5   ar
    26     5     6   ar
    27     6     7   ar
    28     7     8    1
    29    25    26    2
    30    26    27    1
    31    32    33   ar
    32    33    34   ar
    33    34    35   ar
    34    35    30   ar
    35    14     9   ar
    36     7     2   ar
    37    20    15   ar
    38    27    28    1
@<TRIPOS>MOLECULE
*****
 35 38 0 0 0
SMALL
GASTEIGER

@<TRIPOS>ATOM
      1 C          61.5820   87.1203   10.7549 C.3     1  UNL1        0.0503
      2 C          60.8199   87.2874    9.4738 C.ar    1  UNL1       -0.0220
      3 C          60.8951   86.2296    8.4129 C.ar    1  UNL1       -0.0043
      4 C          60.1329   86.3968    7.1318 C.ar    1  UNL1       -0.0003
      5 C          59.2956   87.6217    6.9116 C.ar    1  UNL1       -0.0003
      6 C          59.2205   88.6795    7.9725 C.ar    1  UNL1       -0.0046
      7 C          59.9826   88.5123    9.2536 C.ar    1  UNL1       -0.0255
      8 C          59.9075   89.5701   10.3145 C.3     1  UNL1        0.0307
      9 C          62.4264   88.2445   11.2774 C.ar    1  UNL1       -0.0181
     10 C          62.6637   89.4602   10.4313 C.ar    1  UNL1       -0.0039
     11 C          63.5081   90.5845   10.9538 C.ar    1  UNL1       -0.0003
     12 C          64.1153   90.4931   12.3224 C.ar    1  UNL1       -0.0000
     13 C          63.8780   89.2774   13.1685 C.ar    1  UNL1       -0.0003
     14 C          63.0336   88.1531   12.6460 C.ar    1  UNL1       -0.0039
     15 C          64.9597   91.6173   12.8449 C.ar    1  UNL1        0.0000
     16 C          65.4770   91.5753   14.2521 C.ar    1  UNL1        0.0000
     17 C          66.3215   92.6995   14.7747 C.ar    1  UNL1        0.0000
     18 C          66.6485   93.8658   13.8899 C.ar    1  UNL1        0.0011
     19 C          66.1311   93.9078   12.4826 C.ar    1  UNL1        0.0140
     20 C          65.2867   92.7836   11.9601 C.ar    1  UNL1        0.0011
     21 C          66.4581   95.0741   11.5978 C.2     1  UNL1        0.0729
     22 O          65.9660   96.4459   11.9526 O.co2   1  UNL1       -0.5446
     23 O          67.2772   94.8685   10.3580 O.co2   1  UNL1       -0.5446
     24 C          61.4997   85.8288   11.5135 C.3     1  UNL1        0.0578
     25 C          62.5976   84.8145   11.3888 C.2     1  UNL1        0.0975
     26 N          63.3117   84.6391   10.0813 N.2     1  UNL1       -0.0908
     27 O          63.2483   84.9834    9.3651 O.2     1  UNL1       -0.4090
     28 H          63.8104   84.7153    8.6650 H       1  UNL1        0.3278
     29 C          62.5738   80.2447   13.8620 C.3     1  UNL1        0.0521
     30 C          62.9696   81.6905   13.8080 C.ar    1  UNL1        0.0594
     31 C          62.5857   82.5296   12.6254 C.ar    1  UNL1        0.0160
     32 C          62.9815   83.9754   12.5714 C.ar    1  UNL1        0.0194
     33 C          63.7612   84.5822   13.7001 C.ar    1  UNL1        0.0219
     34 C          64.1451   83.7431   14.8827 C.ar    1  UNL1        0.0985
     35 N          63.7493   82.2973   14.9367 N.ar    1  UNL1       -0.2481
@<TRIPOS>UNITY_ATOM_ATTR
22 1
charge -1
@<TRIPOS>BOND
     1    29    30    1
     2    30    31   ar
     3    31    32   ar
     4    32    25    1
     5    25    24    1
     6    24     1    1
     7     1     9    1
     8     9    10   ar
     9    10    11   ar
    10    11    12   ar
    11    12    15    1
    12    15    16   ar
    13    16    17   ar
    14    17    18   ar
    15    18    19   ar
    16    19    21    1
    17    21    22   ar
    18    21    23   ar
    19    19    20   ar
    20    12    13   ar
    21    13    14   ar
    22     1     2    1
    23     2     3   ar
    24     3     4   ar
    25     4     5   ar
    26     5     6   ar
    27     6     7   ar
    28     7     8    1
    29    25    26    2
    30    26    27    1
    31    32    33   ar
    32    33    34   ar
    33    34    35   ar
    34    35    30   ar
    35    14     9   ar
    36     7     2   ar
    37    20    15   ar
    38    27    28    1
@<TRIPOS>MOLECULE
*****
 35 38 0 0 0
SMALL
GASTEIGER

@<TRIPOS>ATOM
      1 C          64.8060   90.7500   13.5121 C.3     1  UNL1        0.0503
      2 C          65.3613   92.0962   13.1524 C.ar    1  UNL1       -0.0220
      3 C          65.1663   92.6427   11.7691 C.ar    1  UNL1       -0.0043
      4 C          65.7217   93.9889   11.4094 C.ar    1  UNL1       -0.0003
      5 C          66.4720   94.7885   12.4330 C.ar    1  UNL1       -0.0003
      6 C          66.6669   94.2420   13.8162 C.ar    1  UNL1       -0.0046
      7 C          66.1116   92.8958   14.1759 C.ar    1  UNL1       -0.0255
      8 C          66.3065   92.3493   15.5591 C.3     1  UNL1        0.0307
      9 C          63.9309   90.0155   12.5401 C.ar    1  UNL1       -0.0181
     10 C          63.6715   88.5497   12.7239 C.ar    1  UNL1       -0.0039
     11 C          62.7964   87.8151   11.7519 C.ar    1  UNL1       -0.0003
     12 C          62.1809   88.5465   10.5960 C.ar    1  UNL1       -0.0000
     13 C          62.4404   90.0125   10.4121 C.ar    1  UNL1       -0.0003
     14 C          63.3154   90.7470   11.3842 C.ar    1  UNL1       -0.0039
     15 C          61.3059   87.8121    9.6239 C.ar    1  UNL1        0.0000
     16 C          59.8532   88.1669    9.5062 C.ar    1  UNL1        0.0000
     17 C          58.9781   87.4325    8.5341 C.ar    1  UNL1        0.0000
     18 C          59.5558   86.3432    7.6798 C.ar    1  UNL1        0.0011
     19 C          61.0085   85.9884    7.7976 C.ar    1  UNL1        0.0140
     20 C          61.8835   86.7228    8.7696 C.ar    1  UNL1        0.0011
     21 C          61.5861   84.8991    6.9433 C.2     1  UNL1        0.0729
     22 O          60.7186   84.1863    5.9487 O.co2   1  UNL1       -0.5446
     23 O          63.0314   84.5227    7.0836 O.co2   1  UNL1       -0.5446
     24 C          65.1257   90.1382   14.8439 C.3     1  UNL1        0.0578
     25 C          64.0182   89.7804   15.7901 C.2     1  UNL1        0.0975
     26 N          63.2290   90.8630   16.4648 N.2     1  UNL1       -0.0908
     27 O          63.2523   91.6596   16.4451 O.2     1  UNL1       -0.4090
     28 H          62.6496   92.1588   16.9604 H       1  UNL1        0.3278
     29 C          64.5057   84.7551   14.5618 C.3     1  UNL1        0.0521
     30 C          63.9436   85.8273   15.4475 C.ar    1  UNL1        0.0594
     31 C          64.2619   87.2677   15.1760 C.ar    1  UNL1        0.0160
     32 C          63.6998   88.3399   16.0617 C.ar    1  UNL1        0.0194
     33 C          62.8194   87.9717   17.2189 C.ar    1  UNL1        0.0219
     34 C          62.5010   86.5312   17.4904 C.ar    1  UNL1        0.0985
     35 N          63.0632   85.4590   16.6047 N.ar    1  UNL1       -0.2481
@<TRIPOS>UNITY_ATOM_ATTR
22 1
charge -1
@<TRIPOS>BOND
     1    29    30    1
     2    30    31   ar
     3    31    32   ar
     4    32    25    1
     5    25    24    1
     6    24     1    1
     7     1     9    1
     8     9    10   ar
     9    10    11   ar
    10    11    12   ar
    11    12    15    1
    12    15    16   ar
    13    16    17   ar
    14    17    18   ar
    15    18    19   ar
    16    19    21    1
    17    21    22   ar
    18    21    23   ar
    19    19    20   ar
    20    12    13   ar
    21    13    14   ar
    22     1     2    1
    23     2     3   ar
    24     3     4   ar
    25     4     5   ar
    26     5     6   ar
    27     6     7   ar
    28     7     8    1
    29    25    26    2
    30    26    27    1
    31    32    33   ar
    32    33    34   ar
    33    34    35   ar
    34    35    30   ar
    35    14     9   ar
    36     7     2   ar
    37    20    15   ar
    38    27    28    1
@<TRIPOS>MOLECULE
*****
 35 38 0 0 0
SMALL
GASTEIGER

@<TRIPOS>ATOM
      1 C          61.5027   87.2752   10.6409 C.3     1  UNL1        0.0503
      2 C          60.7044   87.4233    9.3796 C.ar    1  UNL1       -0.0220
      3 C          60.6672   86.3056    8.3799 C.ar    1  UNL1       -0.0043
      4 C          59.8689   86.4537    7.1187 C.ar    1  UNL1       -0.0003
      5 C          59.1078   87.7195    6.8571 C.ar    1  UNL1       -0.0003
      6 C          59.1450   88.8372    7.8567 C.ar    1  UNL1       -0.0046
      7 C          59.9433   88.6891    9.1180 C.ar    1  UNL1       -0.0255
      8 C          59.9805   89.8068   10.1176 C.3     1  UNL1        0.0307
      9 C          62.3662   88.4047   11.1189 C.ar    1  UNL1       -0.0181
     10 C          62.9034   88.3972   12.5194 C.ar    1  UNL1       -0.0039
     11 C          63.7670   89.5267   12.9975 C.ar    1  UNL1       -0.0003
     12 C          64.0932   90.6637   12.0751 C.ar    1  UNL1       -0.0000
     13 C          63.5560   90.6712   10.6746 C.ar    1  UNL1       -0.0003
     14 C          62.6925   89.5417   10.1965 C.ar    1  UNL1       -0.0039
     15 C          64.9567   91.7932   12.5532 C.ar    1  UNL1        0.0000
     16 C          65.3117   92.9127   11.6201 C.ar    1  UNL1        0.0000
     17 C          66.1752   94.0423   12.0982 C.ar    1  UNL1        0.0000
     18 C          66.6838   94.0522   13.5093 C.ar    1  UNL1        0.0011
     19 C          66.3288   92.9326   14.4423 C.ar    1  UNL1        0.0140
     20 C          65.4653   91.8031   13.9643 C.ar    1  UNL1        0.0011
     21 C          66.8374   92.9426   15.8535 C.2     1  UNL1        0.0729
     22 O          65.9097   92.6207   16.9873 O.co2   1  UNL1       -0.5446
     23 O          68.2738   93.2744   16.1307 O.co2   1  UNL1       -0.5446
     24 C          61.4374   85.9975   11.4241 C.3     1  UNL1        0.0578
     25 C          62.5431   84.9904   11.3097 C.2     1  UNL1        0.0975
     26 N          63.2388   84.7863    9.9965 N.2     1  UNL1       -0.0908
     27 O          63.1611   85.1105    9.2724 O.2     1  UNL1       -0.4090
     28 H          63.7150   84.8288    8.5711 H       1  UNL1        0.3278
     29 C          62.7500   80.4500   13.8280 C.3     1  UNL1        0.0521
     30 C          63.0566   81.9171   13.7676 C.ar    1  UNL1        0.0594
     31 C          62.6466   82.7202   12.5689 C.ar    1  UNL1        0.0160
     32 C          62.9531   84.1873   12.5084 C.ar    1  UNL1        0.0194
     33 C          63.6697   84.8513   13.6466 C.ar    1  UNL1        0.0219
     34 C          64.0797   84.0482   14.8453 C.ar    1  UNL1        0.0985
     35 N          63.7732   82.5811   14.9058 N.ar    1  UNL1       -0.2481
@<TRIPOS>UNITY_ATOM_ATTR
22 1
charge -1
@<TRIPOS>BOND
     1    29    30    1
     2    30    31   ar
     3    31    32   ar
     4    32    25    1
     5    25    24    1
     6    24     1    1
     7     1     9    1
     8     9    10   ar
     9    10    11   ar
    10    11    12   ar
    11    12    15    1
    12    15    16   ar
    13    16    17   ar
    14    17    18   ar
    15    18    19   ar
    16    19    21    1
    17    21    22   ar
    18    21    23   ar
    19    19    20   ar
    20    12    13   ar
    21    13    14   ar
    22     1     2    1
    23     2     3   ar
    24     3     4   ar
    25     4     5   ar
    26     5     6   ar
    27     6     7   ar
    28     7     8    1
    29    25    26    2
    30    26    27    1
    31    32    33   ar
    32    33    34   ar
    33    34    35   ar
    34    35    30   ar
    35    14     9   ar
    36     7     2   ar
    37    20    15   ar
    38    27    28    1
@<TRIPOS>MOLECULE
*****
 35 38 0 0 0
SMALL
GASTEIGER

@<TRIPOS>ATOM
      1 C          62.6368   89.6368   11.7599 C.3     1  UNL1        0.0503
      2 C          63.7450   90.4453   12.3668 C.ar    1  UNL1       -0.0220
      3 C          64.2106   90.1513   13.7621 C.ar    1  UNL1       -0.0043
      4 C          65.3187   90.9598   14.3690 C.ar    1  UNL1       -0.0003
      5 C          65.9613   92.0624   13.5806 C.ar    1  UNL1       -0.0003
      6 C          65.4957   92.3564   12.1853 C.ar    1  UNL1       -0.0046
      7 C          64.3875   91.5479   11.5784 C.ar    1  UNL1       -0.0255
      8 C          63.9219   91.8419   10.1832 C.3     1  UNL1        0.0307
      9 C          62.7406   88.1413   11.7091 C.ar    1  UNL1       -0.0181
     10 C          63.1710   87.3776   12.9263 C.ar    1  UNL1       -0.0039
     11 C          63.2747   85.8820   12.8755 C.ar    1  UNL1       -0.0003
     12 C          62.9481   85.1502   11.6075 C.ar    1  UNL1       -0.0000
     13 C          62.5177   85.9140   10.3903 C.ar    1  UNL1       -0.0003
     14 C          62.4140   87.4095   10.4411 C.ar    1  UNL1       -0.0039
     15 C          63.0519   83.6547   11.5567 C.ar    1  UNL1        0.0000
     16 C          63.6895   82.9869   10.3746 C.ar    1  UNL1        0.0000
     17 C          63.7933   81.4913   10.3238 C.ar    1  UNL1        0.0000
     18 C          63.2594   80.6636   11.4550 C.ar    1  UNL1        0.0011
     19 C          62.6217   81.3315   12.6372 C.ar    1  UNL1        0.0140
     20 C          62.5180   82.8270   12.6880 C.ar    1  UNL1        0.0011
     21 C          62.0878   80.5037   13.7685 C.2     1  UNL1        0.0729
     22 O          60.6449   80.6144   14.1629 O.co2   1  UNL1       -0.5446
     23 O          62.9969   79.5653   14.5053 O.co2   1  UNL1       -0.5446
     24 C          61.4249   90.3239   11.2038 C.3     1  UNL1        0.0578
     25 C          60.1472   89.5597   11.0211 C.2     1  UNL1        0.0975
     26 N          59.2121   89.3740   12.1791 N.2     1  UNL1       -0.0908
     27 O          59.2245   89.6018   12.9430 O.2     1  UNL1       -0.4090
     28 H          58.5164   89.3721   13.5119 H       1  UNL1        0.3278
     29 C          59.5626   90.1315    5.8896 C.3     1  UNL1        0.0521
     30 C          59.5122   89.2670    7.1145 C.ar    1  UNL1        0.0594
     31 C          59.8549   89.8455    8.4553 C.ar    1  UNL1        0.0160
     32 C          59.8045   88.9811    9.6802 C.ar    1  UNL1        0.0194
     33 C          59.4116   87.5382    9.5642 C.ar    1  UNL1        0.0219
     34 C          59.0689   86.9597    8.2233 C.ar    1  UNL1        0.0985
     35 N          59.1193   87.8241    6.9985 N.ar    1  UNL1       -0.2481
@<TRIPOS>UNITY_ATOM_ATTR
22 1
charge -1
@<TRIPOS>BOND
     1    29    30    1
     2    30    31   ar
     3    31    32   ar
     4    32    25    1
     5    25    24    1
     6    24     1    1
     7     1     9    1
     8     9    10   ar
     9    10    11   ar
    10    11    12   ar
    11    12    15    1
    12    15    16   ar
    13    16    17   ar
    14    17    18   ar
    15    18    19   ar
    16    19    21    1
    17    21    22   ar
    18    21    23   ar
    19    19    20   ar
    20    12    13   ar
    21    13    14   ar
    22     1     2    1
    23     2     3   ar
    24     3     4   ar
    25     4     5   ar
    26     5     6   ar
    27     6     7   ar
    28     7     8    1
    29    25    26    2
    30    26    27    1
    31    32    33   ar
    32    33    34   ar
    33    34    35   ar
    34    35    30   ar
    35    14     9   ar
    36     7     2   ar
    37    20    15   ar
    38    27    28    1
@<TRIPOS>MOLECULE
*****
 35 38 0 0 0
SMALL
GASTEIGER

@<TRIPOS>ATOM
      1 C          62.5674   85.5101   12.0609 C.3     1  UNL1        0.0503
      2 C          62.2185   85.5658   10.6031 C.ar    1  UNL1       -0.0220
      3 C          60.9860   86.2936   10.1541 C.ar    1  UNL1       -0.0043
      4 C          60.6371   86.3493    8.6963 C.ar    1  UNL1       -0.0003
      5 C          61.5206   85.6772    7.6875 C.ar    1  UNL1       -0.0003
      6 C          62.7530   84.9494    8.1364 C.ar    1  UNL1       -0.0046
      7 C          63.1019   84.8937    9.5942 C.ar    1  UNL1       -0.0255
      8 C          64.3343   84.1660   10.0432 C.3     1  UNL1        0.0307
      9 C          63.1417   86.7172   12.7412 C.ar    1  UNL1       -0.0181
     10 C          63.8366   86.5737   14.0628 C.ar    1  UNL1       -0.0039
     11 C          64.4110   87.7808   14.7432 C.ar    1  UNL1       -0.0003
     12 C          64.2905   89.1315   14.1020 C.ar    1  UNL1       -0.0000
     13 C          63.5956   89.2750   12.7804 C.ar    1  UNL1       -0.0003
     14 C          63.0212   88.0679   12.1000 C.ar    1  UNL1       -0.0039
     15 C          64.8648   90.3386   14.7824 C.ar    1  UNL1        0.0000
     16 C          64.0631   91.0674   15.8196 C.ar    1  UNL1        0.0000
     17 C          64.6374   92.2746   16.5001 C.ar    1  UNL1        0.0000
     18 C          66.0135   92.7529   16.1432 C.ar    1  UNL1        0.0011
     19 C          66.8153   92.0241   15.1058 C.ar    1  UNL1        0.0140
     20 C          66.2410   90.8170   14.4254 C.ar    1  UNL1        0.0011
     21 C          68.1915   92.5025   14.7489 C.2     1  UNL1        0.0729
     22 O          68.7731   92.1782   13.4049 O.co2   1  UNL1       -0.5446
     23 O          68.9860   93.3052   15.7361 O.co2   1  UNL1       -0.5446
     24 C          62.3419   84.2472   12.8383 C.3     1  UNL1        0.0578
     25 C          63.4109   83.1961   12.8880 C.2     1  UNL1        0.0975
     26 N          64.8191   83.5746   13.2396 N.2     1  UNL1       -0.0908
     27 O          65.1780   84.2619   13.4250 O.2     1  UNL1       -0.4090
     28 H          66.0952   84.2748   13.6161 H       1  UNL1        0.3278
     29 C          62.8249   79.3382    9.4568 C.3     1  UNL1        0.0521
     30 C          62.7787   79.8376   10.8705 C.ar    1  UNL1        0.0594
     31 C          63.1179   81.2671   11.1724 C.ar    1  UNL1        0.0160
     32 C          63.0716   81.7665   12.5861 C.ar    1  UNL1        0.0194
     33 C          62.6862   80.8363   13.6979 C.ar    1  UNL1        0.0219
     34 C          62.3470   79.4067   13.3959 C.ar    1  UNL1        0.0985
     35 N          62.3932   78.9073   11.9823 N.ar    1  UNL1       -0.2481
@<TRIPOS>UNITY_ATOM_ATTR
22 1
charge -1
@<TRIPOS>BOND
     1    29    30    1
     2    30    31   ar
     3    31    32   ar
     4    32    25    1
     5    25    24    1
     6    24     1    1
     7     1     9    1
     8     9    10   ar
     9    10    11   ar
    10    11    12   ar
    11    12    15    1
    12    15    16   ar
    13    16    17   ar
    14    17    18   ar
    15    18    19   ar
    16    19    21    1
    17    21    22   ar
    18    21    23   ar
    19    19    20   ar
    20    12    13   ar
    21    13    14   ar
    22     1     2    1
    23     2     3   ar
    24     3     4   ar
    25     4     5   ar
    26     5     6   ar
    27     6     7   ar
    28     7     8    1
    29    25    26    2
    30    26    27    1
    31    32    33   ar
    32    33    34   ar
    33    34    35   ar
    34    35    30   ar
    35    14     9   ar
    36     7     2   ar
    37    20    15   ar
    38    27    28    1
@<TRIPOS>MOLECULE
*****
 35 38 0 0 0
SMALL
GASTEIGER

@<TRIPOS>ATOM
      1 C          64.3701   90.7726   13.5498 C.3     1  UNL1        0.0503
      2 C          65.5590   91.3789   14.2346 C.ar    1  UNL1       -0.0220
      3 C          66.8669   91.4898   13.5084 C.ar    1  UNL1       -0.0043
      4 C          68.0558   92.0961   14.1932 C.ar    1  UNL1       -0.0003
      5 C          67.9369   92.5914   15.6041 C.ar    1  UNL1       -0.0003
      6 C          66.6291   92.4804   16.3302 C.ar    1  UNL1       -0.0046
      7 C          65.4402   91.8742   15.6454 C.ar    1  UNL1       -0.0255
      8 C          64.1323   91.7632   16.3715 C.3     1  UNL1        0.0307
      9 C          64.1451   89.2908   13.6095 C.ar    1  UNL1       -0.0181
     10 C          64.5859   88.5132   14.8140 C.ar    1  UNL1       -0.0039
     11 C          64.3609   87.0314   14.8737 C.ar    1  UNL1       -0.0003
     12 C          63.6951   86.3272   13.7287 C.ar    1  UNL1       -0.0000
     13 C          63.2544   87.1049   12.5241 C.ar    1  UNL1       -0.0003
     14 C          63.4793   88.5867   12.4645 C.ar    1  UNL1       -0.0039
     15 C          63.4701   84.8454   13.7884 C.ar    1  UNL1        0.0000
     16 C          63.0792   84.1977   15.0836 C.ar    1  UNL1        0.0000
     17 C          62.8542   82.7158   15.1433 C.ar    1  UNL1        0.0000
     18 C          63.0201   81.8817   13.9076 C.ar    1  UNL1        0.0011
     19 C          63.4111   82.5294   12.6124 C.ar    1  UNL1        0.0140
     20 C          63.6361   84.0112   12.5528 C.ar    1  UNL1        0.0011
     21 C          63.5770   81.6953   11.3768 C.2     1  UNL1        0.0729
     22 O          62.8358   80.3983   11.2424 O.co2   1  UNL1       -0.5446
     23 O          64.4843   82.1583   10.2756 O.co2   1  UNL1       -0.5446
     24 C          63.4061   91.6483   12.8054 C.3     1  UNL1        0.0578
     25 C          63.1187   91.3853   11.3570 C.2     1  UNL1        0.0975
     26 N          63.9778   92.0080   10.2967 N.2     1  UNL1       -0.0908
     27 O          64.6115   92.4914   10.3107 O.2     1  UNL1       -0.4090
     28 H          65.0071   92.7686    9.5078 H       1  UNL1        0.3278
     29 C          58.6073   89.0899   12.5311 C.3     1  UNL1        0.0521
     30 C          59.7163   89.3519   11.5557 C.ar    1  UNL1        0.0594
     31 C          60.8629   90.2376   11.9440 C.ar    1  UNL1        0.0160
     32 C          61.9720   90.4996   10.9686 C.ar    1  UNL1        0.0194
     33 C          61.9344   89.8759    9.6050 C.ar    1  UNL1        0.0219
     34 C          60.7878   88.9902    9.2167 C.ar    1  UNL1        0.0985
     35 N          59.6788   88.7282   10.1921 N.ar    1  UNL1       -0.2481
@<TRIPOS>UNITY_ATOM_ATTR
22 1
charge -1
@<TRIPOS>BOND
     1    29    30    1
     2    30    31   ar
     3    31    32   ar
     4    32    25    1
     5    25    24    1
     6    24     1    1
     7     1     9    1
     8     9    10   ar
     9    10    11   ar
    10    11    12   ar
    11    12    15    1
    12    15    16   ar
    13    16    17   ar
    14    17    18   ar
    15    18    19   ar
    16    19    21    1
    17    21    22   ar
    18    21    23   ar
    19    19    20   ar
    20    12    13   ar
    21    13    14   ar
    22     1     2    1
    23     2     3   ar
    24     3     4   ar
    25     4     5   ar
    26     5     6   ar
    27     6     7   ar
    28     7     8    1
    29    25    26    2
    30    26    27    1
    31    32    33   ar
    32    33    34   ar
    33    34    35   ar
    34    35    30   ar
    35    14     9   ar
    36     7     2   ar
    37    20    15   ar
    38    27    28    1
