@<TRIPOS>MOLECULE
*****
 42 46 0 0 0
SMALL
GASTEIGER

@<TRIPOS>ATOM
      1 C          63.1964   88.6788   17.5074 C.3     1  UNL1        0.0312
      2 C          63.4262   88.1236   16.1330 C.2     1  UNL1        0.0136
      3 C          63.1241   86.6827   15.8460 C.2     1  UNL1        0.0107
      4 C          63.3539   86.1275   14.4717 C.2     1  UNL1        0.0510
      5 C          63.8859   87.0132   13.3842 C.2     1  UNL1        0.0613
      6 C          64.1881   88.4541   13.6712 C.2     1  UNL1        0.2246
      7 N          64.7172   89.5600   12.8070 N.2     1  UNL1       -0.0378
      8 C          64.8144   90.7988   13.6473 C.2     1  UNL1        0.3605
      9 N          64.3453   90.4584   15.0308 N.2     1  UNL1       -0.0547
     10 C          63.9583   89.0093   15.0456 C.3     1  UNL1        0.2976
     11 N          63.0517   84.6864   14.1847 N.pl3   1  UNL1       -0.3040
     12 C          62.0230   83.9593   14.9990 C.3     1  UNL1        0.1123
     13 C          61.7208   82.5183   14.7121 C.3     1  UNL1        0.1148
     14 N          62.4473   81.8046   13.6108 N.am    1  UNL1       -0.2760
     15 C          62.1451   80.3637   13.3238 C.2     1  UNL1        0.2258
     16 O          62.8716   79.6499   12.2225 O.2     1  UNL1       -0.2749
     17 C          63.4760   82.5317   12.7965 C.3     1  UNL1        0.1148
     18 C          63.7782   83.9727   13.0835 C.3     1  UNL1        0.1123
     19 C          61.1165   79.6364   14.1380 C.3     1  UNL1        0.0882
     20 C          59.7061   80.1443   14.1917 C.3     1  UNL1        0.0477
     21 C          58.6174   79.2770   14.7508 C.3     1  UNL1        0.1937
     22 F          58.5875   77.8117   14.4315 F       1  UNL1       -0.2343
     23 C          65.2960   92.1421   13.1852 C.3     1  UNL1        0.2246
     24 C          65.1918   92.5188   11.7370 C.2     1  UNL1        0.0436
     25 C          65.6735   93.8621   11.2749 C.2     1  UNL1        0.0288
     26 C          66.2593   94.8288   12.2610 C.2     1  UNL1        0.0896
     27 N          66.3635   94.4521   13.7092 N.am    1  UNL1       -0.1770
     28 C          65.8818   93.1088   14.1712 C.2     1  UNL1        0.2627
     29 O          65.9860   92.7321   15.6194 O.2     1  UNL1       -0.2719
     30 N          64.6060   91.5522   10.7508 N.pl3   1  UNL1       -0.3329
     31 H          65.1843   90.8901   10.3076 H       1  UNL1        0.1466
     32 C          63.1392   91.5943   10.4400 C.3     1  UNL1        0.1211
     33 C          62.2188   90.5641   11.0243 C.3     1  UNL1        0.1522
     34 O          61.8393   90.6333   12.4739 O.3     1  UNL1       -0.3783
     35 H          62.2719   91.3979   12.8852 H       1  UNL1        0.2109
     36 C          61.6780   89.4646   10.1591 C.ar    1  UNL1        0.0067
     37 C          60.4670   89.7070    9.3078 C.ar    1  UNL1       -0.0018
     38 C          59.9262   88.6075    8.4426 C.ar    1  UNL1        0.0006
     39 C          60.5963   87.2656    8.4287 C.ar    1  UNL1        0.0114
     40 C          61.8072   87.0232    9.2800 C.ar    1  UNL1        0.0574
     41 CL         62.4773   85.6813    9.2661 Cl      1  UNL1       -0.0823
     42 C          62.3481   88.1227   10.1452 C.ar    1  UNL1        0.0095
@<TRIPOS>BOND
     1     1     2    1
     2     2     3    2
     3     3     4    1
     4     4    11    1
     5    11    12    1
     6    12    13    1
     7    13    14    1
     8    14    15   am
     9    15    16    2
    10    15    19    1
    11    19    20    1
    12    20    21    1
    13    21    22    1
    14    14    17    1
    15    17    18    1
    16     4     5    2
    17     5     6    1
    18     6     7    2
    19     7     8    1
    20     8    23    1
    21    23    24    1
    22    24    30    1
    23    30    32    1
    24    32    33    1
    25    33    34    1
    26    33    36    1
    27    36    37   ar
    28    37    38   ar
    29    38    39   ar
    30    39    40   ar
    31    40    41    1
    32    40    42   ar
    33    24    25    2
    34    25    26    1
    35    26    27    2
    36    27    28    1
    37    28    29    2
    38     8     9    2
    39     9    10    1
    40    10     2    1
    41    18    11    1
    42    10     6    1
    43    28    23    1
    44    42    36   ar
    45    30    31    1
    46    34    35    1
@<TRIPOS>MOLECULE
*****
 42 46 0 0 0
SMALL
GASTEIGER

@<TRIPOS>ATOM
      1 C          63.2170   88.7547   17.4637 C.3     1  UNL1        0.0312
      2 C          63.4313   88.1812   16.0943 C.2     1  UNL1        0.0136
      3 C          63.1286   86.7359   15.8307 C.2     1  UNL1        0.0107
      4 C          63.3429   86.1624   14.4615 C.2     1  UNL1        0.0510
      5 C          63.8599   87.0342   13.3556 C.2     1  UNL1        0.0613
      6 C          64.1625   88.4795   13.6192 C.2     1  UNL1        0.2246
      7 N          64.6788   89.5745   12.7336 N.2     1  UNL1       -0.0378
      8 C          64.7836   90.8248   13.5556 C.2     1  UNL1        0.3605
      9 N          64.3320   90.5025   14.9492 N.2     1  UNL1       -0.0547
     10 C          63.9482   89.0530   14.9886 C.3     1  UNL1        0.2976
     11 N          63.0402   84.7170   14.1979 N.pl3   1  UNL1       -0.3040
     12 C          63.7696   83.9841   13.1112 C.3     1  UNL1        0.1123
     13 C          63.4670   82.5388   12.8476 C.3     1  UNL1        0.1148
     14 N          62.4350   81.8264   13.6707 N.am    1  UNL1       -0.2760
     15 C          62.1323   80.3811   13.4072 C.2     1  UNL1        0.2258
     16 O          61.1003   79.6688   14.2302 O.2     1  UNL1       -0.2749
     17 C          61.7056   82.5594   14.7573 C.3     1  UNL1        0.1148
     18 C          62.0082   84.0047   15.0209 C.3     1  UNL1        0.1123
     19 C          62.8617   79.6481   12.3205 C.3     1  UNL1        0.0882
     20 C          62.8018   80.1481   10.9076 C.3     1  UNL1        0.0477
     21 C          62.8193   79.1750    9.7663 C.3     1  UNL1        0.1937
     22 F          62.7420   77.7015   10.0359 F       1  UNL1       -0.2343
     23 C          65.2568   92.1626   13.0693 C.3     1  UNL1        0.2246
     24 C          65.1494   92.5129   11.6148 C.2     1  UNL1        0.0436
     25 C          65.6226   93.8507   11.1286 C.2     1  UNL1        0.0288
     26 C          66.2032   94.8382   12.0970 C.2     1  UNL1        0.0896
     27 N          66.3106   94.4880   13.5515 N.am    1  UNL1       -0.1770
     28 C          65.8374   93.1501   14.0377 C.2     1  UNL1        0.2627
     29 O          65.9447   92.7999   15.4922 O.2     1  UNL1       -0.2719
     30 N          64.5688   91.5254   10.6464 N.pl3   1  UNL1       -0.3329
     31 H          65.1533   90.8690   10.2029 H       1  UNL1        0.1466
     32 C          63.0977   91.5380   10.3537 C.3     1  UNL1        0.1211
     33 C          62.2061   90.4873   10.9461 C.3     1  UNL1        0.1522
     34 O          61.7606   90.5997   12.3740 O.3     1  UNL1       -0.3783
     35 H          62.1355   91.4032   12.7674 H       1  UNL1        0.2109
     36 C          61.7600   89.3242   10.1106 C.ar    1  UNL1        0.0067
     37 C          62.4608   88.0033   10.2286 C.ar    1  UNL1       -0.0018
     38 C          62.0147   86.8402    9.3931 C.ar    1  UNL1        0.0006
     39 C          60.8676   86.9979    8.4395 C.ar    1  UNL1        0.0114
     40 C          60.1667   88.3188    8.3214 C.ar    1  UNL1        0.0574
     41 CL         59.0197   88.4766    7.3678 Cl      1  UNL1       -0.0823
     42 C          60.6129   89.4819    9.1570 C.ar    1  UNL1        0.0095
@<TRIPOS>BOND
     1     1     2    1
     2     2     3    2
     3     3     4    1
     4     4    11    1
     5    11    12    1
     6    12    13    1
     7    13    14    1
     8    14    15   am
     9    15    16    2
    10    15    19    1
    11    19    20    1
    12    20    21    1
    13    21    22    1
    14    14    17    1
    15    17    18    1
    16     4     5    2
    17     5     6    1
    18     6     7    2
    19     7     8    1
    20     8    23    1
    21    23    24    1
    22    24    30    1
    23    30    32    1
    24    32    33    1
    25    33    34    1
    26    33    36    1
    27    36    37   ar
    28    37    38   ar
    29    38    39   ar
    30    39    40   ar
    31    40    41    1
    32    40    42   ar
    33    24    25    2
    34    25    26    1
    35    26    27    2
    36    27    28    1
    37    28    29    2
    38     8     9    2
    39     9    10    1
    40    10     2    1
    41    18    11    1
    42    10     6    1
    43    28    23    1
    44    42    36   ar
    45    30    31    1
    46    34    35    1
@<TRIPOS>MOLECULE
*****
 42 46 0 0 0
SMALL
GASTEIGER

@<TRIPOS>ATOM
      1 C          61.9211   88.5156   10.2794 C.3     1  UNL1        0.0312
      2 C          62.5382   87.6364   11.3264 C.2     1  UNL1        0.0136
      3 C          62.4254   86.1449   11.2149 C.2     1  UNL1        0.0107
      4 C          63.0425   85.2657   12.2618 C.2     1  UNL1        0.0510
      5 C          63.7726   85.8781   13.4203 C.2     1  UNL1        0.0613
      6 C          63.8854   87.3696   13.5318 C.2     1  UNL1        0.2246
      7 N          64.5389   88.2532   14.5527 N.2     1  UNL1       -0.0378
      8 C          64.3257   89.6785   14.1366 C.2     1  UNL1        0.3605
      9 N          63.5404   89.6758   12.8586 N.2     1  UNL1       -0.0547
     10 C          63.2682   88.2488   12.4848 C.3     1  UNL1        0.2976
     11 N          62.9296   83.7740   12.1503 N.pl3   1  UNL1       -0.3040
     12 C          63.1376   83.1032   10.8249 C.3     1  UNL1        0.1123
     13 C          63.0248   81.6116   10.7134 C.3     1  UNL1        0.1148
     14 N          62.7039   80.7909   11.9272 N.am    1  UNL1       -0.2760
     15 C          62.5910   79.2993   11.8158 C.2     1  UNL1        0.2258
     16 O          62.2702   78.4787   13.0297 O.2     1  UNL1       -0.2749
     17 C          62.4959   81.4618   13.2526 C.3     1  UNL1        0.1148
     18 C          62.6088   82.9534   13.3642 C.3     1  UNL1        0.1123
     19 C          62.7990   78.6284   10.4904 C.3     1  UNL1        0.0882
     20 C          63.0110   77.1448   10.4258 C.3     1  UNL1        0.0477
     21 C          64.1955   76.5877    9.6932 C.3     1  UNL1        0.1937
     22 F          64.8056   77.3570    8.5593 F       1  UNL1       -0.2343
     23 C          64.8123   90.8932   14.8699 C.3     1  UNL1        0.2246
     24 C          65.8837   91.7534   14.2680 C.2     1  UNL1        0.0436
     25 C          66.3703   92.9682   15.0013 C.2     1  UNL1        0.0288
     26 C          65.7855   93.3227   16.3364 C.2     1  UNL1        0.0896
     27 N          64.7142   92.4625   16.9382 N.am    1  UNL1       -0.1770
     28 C          64.2276   91.2478   16.2049 C.2     1  UNL1        0.2627
     29 O          63.1563   90.3875   16.8068 O.2     1  UNL1       -0.2719
     30 N          66.4684   91.3990   12.9330 N.pl3   1  UNL1       -0.3329
     31 H          66.1307   90.6168   12.4397 H       1  UNL1        0.1466
     32 C          67.5677   92.2363   12.3495 C.3     1  UNL1        0.1211
     33 C          67.4916   92.6834   10.9197 C.3     1  UNL1        0.1522
     34 O          67.8756   91.7411    9.8177 O.3     1  UNL1       -0.3783
     35 H          68.1472   90.8915   10.1988 H       1  UNL1        0.2109
     36 C          67.0313   94.0729   10.5920 C.ar    1  UNL1        0.0067
     37 C          66.1153   94.8006   11.5308 C.ar    1  UNL1       -0.0018
     38 C          65.6550   96.1901   11.2031 C.ar    1  UNL1        0.0006
     39 C          66.1108   96.8520    9.9365 C.ar    1  UNL1        0.0114
     40 C          67.0268   96.1244    8.9978 C.ar    1  UNL1        0.0574
     41 CL         67.4826   96.7863    7.7312 Cl      1  UNL1       -0.0823
     42 C          67.4871   94.7349    9.3255 C.ar    1  UNL1        0.0095
@<TRIPOS>BOND
     1     1     2    1
     2     2     3    2
     3     3     4    1
     4     4    11    1
     5    11    12    1
     6    12    13    1
     7    13    14    1
     8    14    15   am
     9    15    16    2
    10    15    19    1
    11    19    20    1
    12    20    21    1
    13    21    22    1
    14    14    17    1
    15    17    18    1
    16     4     5    2
    17     5     6    1
    18     6     7    2
    19     7     8    1
    20     8    23    1
    21    23    24    1
    22    24    30    1
    23    30    32    1
    24    32    33    1
    25    33    34    1
    26    33    36    1
    27    36    37   ar
    28    37    38   ar
    29    38    39   ar
    30    39    40   ar
    31    40    41    1
    32    40    42   ar
    33    24    25    2
    34    25    26    1
    35    26    27    2
    36    27    28    1
    37    28    29    2
    38     8     9    2
    39     9    10    1
    40    10     2    1
    41    18    11    1
    42    10     6    1
    43    28    23    1
    44    42    36   ar
    45    30    31    1
    46    34    35    1
@<TRIPOS>MOLECULE
*****
 42 46 0 0 0
SMALL
GASTEIGER

@<TRIPOS>ATOM
      1 C          62.7562   84.1479    7.5192 C.3     1  UNL1        0.0312
      2 C          62.1128   85.3076    8.2202 C.2     1  UNL1        0.0136
      3 C          61.3780   86.3485    7.4286 C.2     1  UNL1        0.0107
      4 C          60.7347   87.5081    8.1294 C.2     1  UNL1        0.0510
      5 C          60.8260   87.6269    9.6220 C.2     1  UNL1        0.0613
      6 C          61.5608   86.5860   10.4136 C.2     1  UNL1        0.2246
      7 N          61.8157   86.4381   11.8843 N.2     1  UNL1       -0.0378
      8 C          62.6166   85.1870   12.0924 C.2     1  UNL1        0.3605
      9 N          62.8567   84.5617   10.7502 N.2     1  UNL1       -0.0547
     10 C          62.2042   85.4264    9.7126 C.3     1  UNL1        0.2976
     11 N          59.9998   88.5490    7.3378 N.pl3   1  UNL1       -0.3040
     12 C          60.7619   89.6318    6.6329 C.3     1  UNL1        0.1123
     13 C          60.0271   90.6727    5.8414 C.3     1  UNL1        0.1148
     14 N          58.5302   90.6308    5.7546 N.am    1  UNL1       -0.2760
     15 C          57.7954   91.6716    4.9631 C.2     1  UNL1        0.2258
     16 O          56.2985   91.6297    4.8764 O.2     1  UNL1       -0.2749
     17 C          57.7681   89.5480    6.4595 C.3     1  UNL1        0.1148
     18 C          58.5029   88.5071    7.2511 C.3     1  UNL1        0.1123
     19 C          58.5574   92.7544    4.2582 C.3     1  UNL1        0.0882
     20 C          59.3001   92.4465    2.9919 C.3     1  UNL1        0.0477
     21 C          60.7164   92.9104    2.8213 C.3     1  UNL1        0.1937
     22 F          61.8499   92.0463    3.2886 F       1  UNL1       -0.2343
     23 C          63.0936   84.6546   13.4111 C.3     1  UNL1        0.2246
     24 C          63.8300   85.5526   14.3604 C.2     1  UNL1        0.0436
     25 C          64.3070   85.0201   15.6791 C.2     1  UNL1        0.0288
     26 C          64.0476   83.5897   16.0485 C.2     1  UNL1        0.0896
     27 N          63.3112   82.6916   15.0992 N.am    1  UNL1       -0.1770
     28 C          62.8342   83.2241   13.7805 C.2     1  UNL1        0.2627
     29 O          62.0978   82.3260   12.8312 O.2     1  UNL1       -0.2719
     30 N          64.0894   86.9831   13.9911 N.pl3   1  UNL1       -0.3329
     31 H          64.1573   87.2423   13.0437 H       1  UNL1        0.1466
     32 C          64.2454   88.0186   15.0650 C.3     1  UNL1        0.1211
     33 C          63.5898   89.3593   14.9150 C.3     1  UNL1        0.1522
     34 O          62.5462   89.7981   15.8991 O.3     1  UNL1       -0.3783
     35 H          62.4155   89.1033   16.5632 H       1  UNL1        0.2109
     36 C          63.9777   90.2612   13.7810 C.ar    1  UNL1        0.0067
     37 C          65.0820   91.2601   13.9611 C.ar    1  UNL1       -0.0018
     38 C          65.4699   92.1620   12.8270 C.ar    1  UNL1        0.0006
     39 C          64.7534   92.0650   11.5127 C.ar    1  UNL1        0.0114
     40 C          63.6491   91.0660   11.3326 C.ar    1  UNL1        0.0574
     41 CL         62.9326   90.9690   10.0184 Cl      1  UNL1       -0.0823
     42 C          63.2612   90.1641   12.4667 C.ar    1  UNL1        0.0095
@<TRIPOS>BOND
     1     1     2    1
     2     2     3    2
     3     3     4    1
     4     4    11    1
     5    11    12    1
     6    12    13    1
     7    13    14    1
     8    14    15   am
     9    15    16    2
    10    15    19    1
    11    19    20    1
    12    20    21    1
    13    21    22    1
    14    14    17    1
    15    17    18    1
    16     4     5    2
    17     5     6    1
    18     6     7    2
    19     7     8    1
    20     8    23    1
    21    23    24    1
    22    24    30    1
    23    30    32    1
    24    32    33    1
    25    33    34    1
    26    33    36    1
    27    36    37   ar
    28    37    38   ar
    29    38    39   ar
    30    39    40   ar
    31    40    41    1
    32    40    42   ar
    33    24    25    2
    34    25    26    1
    35    26    27    2
    36    27    28    1
    37    28    29    2
    38     8     9    2
    39     9    10    1
    40    10     2    1
    41    18    11    1
    42    10     6    1
    43    28    23    1
    44    42    36   ar
    45    30    31    1
    46    34    35    1
@<TRIPOS>MOLECULE
*****
 42 46 0 0 0
SMALL
GASTEIGER

@<TRIPOS>ATOM
      1 C          59.3981   88.9066   12.3187 C.3     1  UNL1        0.0312
      2 C          59.9932   88.5308   10.9940 C.2     1  UNL1        0.0136
      3 C          59.6481   89.3196    9.7658 C.2     1  UNL1        0.0107
      4 C          60.2432   88.9439    8.4413 C.2     1  UNL1        0.0510
      5 C          61.1836   87.7792    8.3448 C.2     1  UNL1        0.0613
      6 C          61.5287   86.9903    9.5730 C.2     1  UNL1        0.2246
      7 N          62.4185   85.8015    9.7851 N.2     1  UNL1       -0.0378
      8 C          62.3733   85.4426   11.2408 C.2     1  UNL1        0.3605
      9 N          61.4556   86.4095   11.9284 N.2     1  UNL1       -0.0547
     10 C          60.9336   87.3661   10.8976 C.3     1  UNL1        0.2976
     11 N          59.8979   89.7328    7.2130 N.pl3   1  UNL1       -0.3040
     12 C          60.9869   90.3584    6.3928 C.3     1  UNL1        0.1123
     13 C          60.6417   91.1473    5.1646 C.3     1  UNL1        0.1148
     14 N          59.2076   91.3106    4.7566 N.am    1  UNL1       -0.2760
     15 C          58.8623   92.0994    3.5285 C.2     1  UNL1        0.2258
     16 O          57.4281   92.2627    3.1204 O.2     1  UNL1       -0.2749
     17 C          58.1186   90.6849    5.5768 C.3     1  UNL1        0.1148
     18 C          58.4638   89.8960    6.8050 C.3     1  UNL1        0.1123
     19 C          59.9513   92.7251    2.7082 C.3     1  UNL1        0.0882
     20 C          59.6459   93.2636    1.3419 C.3     1  UNL1        0.0477
     21 C          59.8820   92.4118    0.1300 C.3     1  UNL1        0.1937
     22 F          61.0675   91.4944    0.0776 F       1  UNL1       -0.2343
     23 C          63.1155   84.3147   11.8943 C.3     1  UNL1        0.2246
     24 C          63.5356   84.4255   13.3300 C.2     1  UNL1        0.0436
     25 C          64.2778   83.2975   13.9834 C.2     1  UNL1        0.0288
     26 C          64.6000   82.0588   13.2012 C.2     1  UNL1        0.0896
     27 N          64.1799   81.9480   11.7655 N.am    1  UNL1       -0.1770
     28 C          63.4376   83.0760   11.1121 C.2     1  UNL1        0.2627
     29 O          63.0175   82.9652    9.6764 O.2     1  UNL1       -0.2719
     30 N          63.2136   85.6641   14.1123 N.pl3   1  UNL1       -0.3329
     31 H          62.2945   85.8217   14.4283 H       1  UNL1        0.1466
     32 C          64.2916   86.6627   14.4132 C.3     1  UNL1        0.1211
     33 C          63.9310   88.0194   14.9416 C.3     1  UNL1        0.1522
     34 O          63.3764   88.1612   16.3281 O.3     1  UNL1       -0.3783
     35 H          63.3156   87.2866   16.7430 H       1  UNL1        0.2109
     36 C          64.1248   89.2343   14.0834 C.ar    1  UNL1        0.0067
     37 C          65.0433   90.3315   14.5333 C.ar    1  UNL1       -0.0018
     38 C          65.2372   91.5464   13.6752 C.ar    1  UNL1        0.0006
     39 C          64.5125   91.6642   12.3671 C.ar    1  UNL1        0.0114
     40 C          63.5940   90.5669   11.9173 C.ar    1  UNL1        0.0574
     41 CL         62.8693   90.6847   10.6092 Cl      1  UNL1       -0.0823
     42 C          63.4001   89.3520   12.7754 C.ar    1  UNL1        0.0095
@<TRIPOS>BOND
     1     1     2    1
     2     2     3    2
     3     3     4    1
     4     4    11    1
     5    11    12    1
     6    12    13    1
     7    13    14    1
     8    14    15   am
     9    15    16    2
    10    15    19    1
    11    19    20    1
    12    20    21    1
    13    21    22    1
    14    14    17    1
    15    17    18    1
    16     4     5    2
    17     5     6    1
    18     6     7    2
    19     7     8    1
    20     8    23    1
    21    23    24    1
    22    24    30    1
    23    30    32    1
    24    32    33    1
    25    33    34    1
    26    33    36    1
    27    36    37   ar
    28    37    38   ar
    29    38    39   ar
    30    39    40   ar
    31    40    41    1
    32    40    42   ar
    33    24    25    2
    34    25    26    1
    35    26    27    2
    36    27    28    1
    37    28    29    2
    38     8     9    2
    39     9    10    1
    40    10     2    1
    41    18    11    1
    42    10     6    1
    43    28    23    1
    44    42    36   ar
    45    30    31    1
    46    34    35    1
@<TRIPOS>MOLECULE
*****
 42 46 0 0 0
SMALL
GASTEIGER

@<TRIPOS>ATOM
      1 C          64.0719   87.2379   15.0939 C.3     1  UNL1        0.0312
      2 C          63.8881   88.2257   13.9801 C.2     1  UNL1        0.0136
      3 C          62.8980   87.9488   12.8879 C.2     1  UNL1        0.0107
      4 C          62.7141   88.9365   11.7742 C.2     1  UNL1        0.0510
      5 C          63.5205   90.2013   11.7525 C.2     1  UNL1        0.0613
      6 C          64.5106   90.4782   12.8448 C.2     1  UNL1        0.2246
      7 N          65.4402   91.6299   13.0884 N.2     1  UNL1       -0.0378
      8 C          66.1985   91.3539   14.3528 C.2     1  UNL1        0.3605
      9 N          65.7376   90.0316   14.8906 N.2     1  UNL1       -0.0547
     10 C          64.6944   89.4904   13.9585 C.3     1  UNL1        0.2976
     11 N          61.7239   88.6596   10.6819 N.pl3   1  UNL1       -0.3040
     12 C          61.1344   89.7949    9.8985 C.3     1  UNL1        0.1123
     13 C          60.1442   89.5180    8.8063 C.3     1  UNL1        0.1148
     14 N          59.7437   88.1058    8.4975 N.am    1  UNL1       -0.2760
     15 C          58.7536   87.8289    7.4053 C.2     1  UNL1        0.2258
     16 O          58.3530   86.4167    7.0964 O.2     1  UNL1       -0.2749
     17 C          60.3332   86.9706    9.2808 C.3     1  UNL1        0.1148
     18 C          61.3234   87.2475   10.3730 C.3     1  UNL1        0.1123
     19 C          58.1639   88.9641    6.6219 C.3     1  UNL1        0.0882
     20 C          59.0609   89.9022    5.8700 C.3     1  UNL1        0.0477
     21 C          58.4983   91.1537    5.2640 C.3     1  UNL1        0.1937
     22 F          57.0616   91.1991    4.8353 F       1  UNL1       -0.2343
     23 C          67.2357   92.2439   14.9710 C.3     1  UNL1        0.2246
     24 C          68.5757   92.4015   14.3156 C.2     1  UNL1        0.0436
     25 C          69.6129   93.2916   14.9339 C.2     1  UNL1        0.0288
     26 C          69.3101   94.0240   16.2074 C.2     1  UNL1        0.0896
     27 N          67.9700   93.8664   16.8627 N.am    1  UNL1       -0.1770
     28 C          66.9329   92.9763   16.2445 C.2     1  UNL1        0.2627
     29 O          65.5929   92.8187   16.8998 O.2     1  UNL1       -0.2719
     30 N          68.8786   91.6692   13.0421 N.pl3   1  UNL1       -0.3329
     31 H          69.0608   90.7019   13.0620 H       1  UNL1        0.1466
     32 C          68.9040   92.4105   11.7384 C.3     1  UNL1        0.1211
     33 C          67.6281   92.6497   10.9868 C.3     1  UNL1        0.1522
     34 O          66.8073   91.4870   10.5133 O.3     1  UNL1       -0.3783
     35 H          67.2396   90.6586   10.7737 H       1  UNL1        0.2109
     36 C          67.1731   94.0517   10.7086 C.ar    1  UNL1        0.0067
     37 C          66.3141   94.7730   11.7045 C.ar    1  UNL1       -0.0018
     38 C          65.8591   96.1750   11.4264 C.ar    1  UNL1        0.0006
     39 C          66.2632   96.8558   10.1523 C.ar    1  UNL1        0.0114
     40 C          67.1222   96.1346    9.1564 C.ar    1  UNL1        0.0574
     41 CL         67.5263   96.8154    7.8824 Cl      1  UNL1       -0.0823
     42 C          67.5772   94.7326    9.4346 C.ar    1  UNL1        0.0095
@<TRIPOS>BOND
     1     1     2    1
     2     2     3    2
     3     3     4    1
     4     4    11    1
     5    11    12    1
     6    12    13    1
     7    13    14    1
     8    14    15   am
     9    15    16    2
    10    15    19    1
    11    19    20    1
    12    20    21    1
    13    21    22    1
    14    14    17    1
    15    17    18    1
    16     4     5    2
    17     5     6    1
    18     6     7    2
    19     7     8    1
    20     8    23    1
    21    23    24    1
    22    24    30    1
    23    30    32    1
    24    32    33    1
    25    33    34    1
    26    33    36    1
    27    36    37   ar
    28    37    38   ar
    29    38    39   ar
    30    39    40   ar
    31    40    41    1
    32    40    42   ar
    33    24    25    2
    34    25    26    1
    35    26    27    2
    36    27    28    1
    37    28    29    2
    38     8     9    2
    39     9    10    1
    40    10     2    1
    41    18    11    1
    42    10     6    1
    43    28    23    1
    44    42    36   ar
    45    30    31    1
    46    34    35    1
@<TRIPOS>MOLECULE
*****
 42 46 0 0 0
SMALL
GASTEIGER

@<TRIPOS>ATOM
      1 C          61.8509   88.9754   10.1934 C.3     1  UNL1        0.0312
      2 C          62.5210   88.1948   11.2850 C.2     1  UNL1        0.0136
      3 C          62.3185   86.7116   11.3794 C.2     1  UNL1        0.0107
      4 C          62.9885   85.9310   12.4709 C.2     1  UNL1        0.0510
      5 C          63.8613   86.6337   13.4683 C.2     1  UNL1        0.0613
      6 C          64.0639   88.1169   13.3740 C.2     1  UNL1        0.2246
      7 N          64.8614   89.0759   14.2072 N.2     1  UNL1       -0.0378
      8 C          64.6842   90.4492   13.6304 C.2     1  UNL1        0.3605
      9 N          63.7772   90.3390   12.4409 N.2     1  UNL1       -0.0547
     10 C          63.3938   88.8975   12.2823 C.3     1  UNL1        0.2976
     11 N          62.7859   84.4477   12.5652 N.pl3   1  UNL1       -0.3040
     12 C          62.2217   83.8460   13.8181 C.3     1  UNL1        0.1123
     13 C          62.0191   82.3627   13.9124 C.3     1  UNL1        0.1148
     14 N          62.3807   81.4812   12.7539 N.am    1  UNL1       -0.2760
     15 C          62.1781   79.9980   12.8481 C.2     1  UNL1        0.2258
     16 O          62.5397   79.1165   11.6896 O.2     1  UNL1       -0.2749
     17 C          62.9449   82.0829   11.5011 C.3     1  UNL1        0.1148
     18 C          63.1475   83.5662   11.4067 C.3     1  UNL1        0.1123
     19 C          61.6139   79.3961   14.1010 C.3     1  UNL1        0.0882
     20 C          60.1443   79.1126   14.2010 C.3     1  UNL1        0.0477
     21 C          59.1648   80.2464   14.2714 C.3     1  UNL1        0.1937
     22 F          57.9341   80.1226   15.1199 F       1  UNL1       -0.2343
     23 C          65.3050   91.7113   14.1518 C.3     1  UNL1        0.2246
     24 C          66.0607   92.6147   13.2229 C.2     1  UNL1        0.0436
     25 C          66.6815   93.8768   13.7443 C.2     1  UNL1        0.0288
     26 C          66.5467   94.2354   15.1946 C.2     1  UNL1        0.0896
     27 N          65.7911   93.3320   16.1234 N.am    1  UNL1       -0.1770
     28 C          65.1702   92.0699   15.6020 C.2     1  UNL1        0.2627
     29 O          64.4146   91.1665   16.5309 O.2     1  UNL1       -0.2719
     30 N          66.1955   92.2561   11.7727 N.pl3   1  UNL1       -0.3329
     31 H          65.3965   92.2174   11.1988 H       1  UNL1        0.1466
     32 C          67.5478   91.9566   11.1967 C.3     1  UNL1        0.1211
     33 C          68.1306   92.8537   10.1454 C.3     1  UNL1        0.1522
     34 O          69.4784   92.5484    9.5620 O.3     1  UNL1       -0.3783
     35 H          69.8330   91.7436    9.9711 H       1  UNL1        0.2109
     36 C          67.3657   94.0562    9.6774 C.ar    1  UNL1        0.0067
     37 C          67.4152   94.4616    8.2341 C.ar    1  UNL1       -0.0018
     38 C          66.6503   95.6641    7.7662 C.ar    1  UNL1        0.0006
     39 C          65.8359   96.4612    8.7415 C.ar    1  UNL1        0.0114
     40 C          65.7864   96.0558   10.1848 C.ar    1  UNL1        0.0574
     41 CL         64.9720   96.8529   11.1602 Cl      1  UNL1       -0.0823
     42 C          66.5513   94.8533   10.6528 C.ar    1  UNL1        0.0095
@<TRIPOS>BOND
     1     1     2    1
     2     2     3    2
     3     3     4    1
     4     4    11    1
     5    11    12    1
     6    12    13    1
     7    13    14    1
     8    14    15   am
     9    15    16    2
    10    15    19    1
    11    19    20    1
    12    20    21    1
    13    21    22    1
    14    14    17    1
    15    17    18    1
    16     4     5    2
    17     5     6    1
    18     6     7    2
    19     7     8    1
    20     8    23    1
    21    23    24    1
    22    24    30    1
    23    30    32    1
    24    32    33    1
    25    33    34    1
    26    33    36    1
    27    36    37   ar
    28    37    38   ar
    29    38    39   ar
    30    39    40   ar
    31    40    41    1
    32    40    42   ar
    33    24    25    2
    34    25    26    1
    35    26    27    2
    36    27    28    1
    37    28    29    2
    38     8     9    2
    39     9    10    1
    40    10     2    1
    41    18    11    1
    42    10     6    1
    43    28    23    1
    44    42    36   ar
    45    30    31    1
    46    34    35    1
@<TRIPOS>MOLECULE
*****
 42 46 0 0 0
SMALL
GASTEIGER

@<TRIPOS>ATOM
      1 C          58.6454   86.9235    8.5076 C.3     1  UNL1        0.0312
      2 C          59.5651   88.0766    8.2346 C.2     1  UNL1        0.0136
      3 C          59.4090   88.8789    6.9769 C.2     1  UNL1        0.0107
      4 C          60.3286   90.0320    6.7039 C.2     1  UNL1        0.0510
      5 C          61.4044   90.3829    7.6886 C.2     1  UNL1        0.0613
      6 C          61.5604   89.5806    8.9464 C.2     1  UNL1        0.2246
      7 N          62.5210   89.6890   10.0933 N.2     1  UNL1       -0.0378
      8 C          62.1950   88.6029   11.0752 C.2     1  UNL1        0.3605
      9 N          61.0330   87.8232   10.5351 N.2     1  UNL1       -0.0547
     10 C          60.6408   88.4274    9.2194 C.3     1  UNL1        0.2976
     11 N          60.1725   90.8343    5.4461 N.pl3   1  UNL1       -0.3040
     12 C          61.3808   91.2046    4.6379 C.3     1  UNL1        0.1123
     13 C          61.2247   92.0069    3.3801 C.3     1  UNL1        0.1148
     14 N          59.8605   92.4389    2.9306 N.am    1  UNL1       -0.2760
     15 C          59.7043   93.2412    1.6729 C.2     1  UNL1        0.2258
     16 O          58.3401   93.6733    1.2233 O.2     1  UNL1       -0.2749
     17 C          58.6522   92.0687    3.7388 C.3     1  UNL1        0.1148
     18 C          58.8083   91.2664    4.9965 C.3     1  UNL1        0.1123
     19 C          60.9125   93.6115    0.8646 C.3     1  UNL1        0.0882
     20 C          61.1826   92.9218   -0.4398 C.3     1  UNL1        0.0477
     21 C          60.3653   93.2611   -1.6509 C.3     1  UNL1        0.1937
     22 F          59.0523   92.5750   -1.8859 F       1  UNL1       -0.2343
     23 C          62.9062   88.3422   12.3699 C.3     1  UNL1        0.2246
     24 C          63.3935   89.4909   13.2024 C.2     1  UNL1        0.0436
     25 C          64.1047   89.2301   14.4972 C.2     1  UNL1        0.0288
     26 C          64.3285   87.8208   14.9594 C.2     1  UNL1        0.0896
     27 N          63.8412   86.6721   14.1269 N.am    1  UNL1       -0.1770
     28 C          63.1300   86.9329   12.8321 C.2     1  UNL1        0.2627
     29 O          62.6427   85.7842   11.9996 O.2     1  UNL1       -0.2719
     30 N          63.1697   90.9002   12.7403 N.pl3   1  UNL1       -0.3329
     31 H          62.4008   91.4131   13.0792 H       1  UNL1        0.1466
     32 C          64.1175   91.5281   11.7618 C.3     1  UNL1        0.1211
     33 C          65.2128   92.4287   12.2509 C.3     1  UNL1        0.1522
     34 O          65.4239   92.6214   13.7234 O.3     1  UNL1       -0.3783
     35 H          64.7726   92.0968   14.2148 H       1  UNL1        0.2109
     36 C          66.0970   93.1365   11.2675 C.ar    1  UNL1        0.0067
     37 C          66.0109   94.6266   11.1185 C.ar    1  UNL1       -0.0018
     38 C          66.8951   95.3344   10.1351 C.ar    1  UNL1        0.0006
     39 C          67.8655   94.5522    9.3006 C.ar    1  UNL1        0.0114
     40 C          67.9516   93.0621    9.4496 C.ar    1  UNL1        0.0574
     41 CL         68.9221   92.2799    8.6151 Cl      1  UNL1       -0.0823
     42 C          67.0674   92.3543   10.4330 C.ar    1  UNL1        0.0095
@<TRIPOS>BOND
     1     1     2    1
     2     2     3    2
     3     3     4    1
     4     4    11    1
     5    11    12    1
     6    12    13    1
     7    13    14    1
     8    14    15   am
     9    15    16    2
    10    15    19    1
    11    19    20    1
    12    20    21    1
    13    21    22    1
    14    14    17    1
    15    17    18    1
    16     4     5    2
    17     5     6    1
    18     6     7    2
    19     7     8    1
    20     8    23    1
    21    23    24    1
    22    24    30    1
    23    30    32    1
    24    32    33    1
    25    33    34    1
    26    33    36    1
    27    36    37   ar
    28    37    38   ar
    29    38    39   ar
    30    39    40   ar
    31    40    41    1
    32    40    42   ar
    33    24    25    2
    34    25    26    1
    35    26    27    2
    36    27    28    1
    37    28    29    2
    38     8     9    2
    39     9    10    1
    40    10     2    1
    41    18    11    1
    42    10     6    1
    43    28    23    1
    44    42    36   ar
    45    30    31    1
    46    34    35    1
