@<TRIPOS>MOLECULE
*****
 31 33 0 0 0
SMALL
GASTEIGER

@<TRIPOS>ATOM
      1 N          63.8998   87.5313   15.4584 N.am    1  UNL1       -0.2681
      2 C          64.3071   88.6254   14.5167 C.2     1  UNL1        0.3082
      3 O          64.2738   88.3912   13.0355 O.2     1  UNL1       -0.2522
      4 N          64.7478   89.9539   15.0562 N.am    1  UNL1       -0.2681
      5 H          63.9217   87.6850   16.4306 H       1  UNL1        0.1564
      6 H          64.7697   90.1077   16.0284 H       1  UNL1        0.1564
      7 C          62.8297   84.6898   12.9028 C.ar    1  UNL1        0.0546
      8 C          62.5778   83.5459   13.8399 C.ar    1  UNL1        0.0046
      9 C          62.7666   83.7305   15.3165 C.ar    1  UNL1        0.0014
     10 C          63.2072   85.0589   15.8560 C.ar    1  UNL1        0.0147
     11 C          63.4591   86.2028   14.9189 C.ar    1  UNL1        0.0517
     12 C          63.2704   86.0182   13.4423 C.ar    1  UNL1        0.0192
     13 N          62.3190   85.6852   10.5580 N.am    1  UNL1       -0.3025
     14 C          62.6410   84.5052   11.4262 C.2     1  UNL1        0.2458
     15 O          62.7743   83.1406   10.8179 O.2     1  UNL1       -0.2701
     16 H          62.2315   86.5808   10.9573 H       1  UNL1        0.1497
     17 C          63.2231   84.8879    8.2564 C.3     1  UNL1        0.0213
     18 C          62.1303   85.5006    9.0814 C.3     1  UNL1        0.0720
     19 C          60.8488   85.9286    8.4298 C.3     1  UNL1        0.0213
     20 C          65.1551   91.0481   14.1145 C.ar    1  UNL1        0.0516
     21 C          64.3405   91.3213   12.8849 C.ar    1  UNL1        0.0147
     22 C          64.7478   92.4154   11.9432 C.ar    1  UNL1        0.0013
     23 C          65.9697   93.2365   12.2310 C.ar    1  UNL1        0.0002
     24 C          66.7844   92.9633   13.4606 C.ar    1  UNL1        0.0013
     25 C          66.3770   91.8690   14.4023 C.ar    1  UNL1        0.0147
     26 C          66.3770   94.3306   11.2893 C.ar    1  UNL1        0.0031
     27 C          66.0741   95.7608   11.6253 C.ar    1  UNL1        0.0207
     28 C          66.4814   96.8549   10.6836 C.ar    1  UNL1        0.0989
     29 N          67.1917   96.5190    9.4058 N.ar    1  UNL1       -0.2423
     30 C          67.4947   95.0889    9.0699 C.ar    1  UNL1        0.0989
     31 C          67.0873   93.9947   10.0116 C.ar    1  UNL1        0.0207
@<TRIPOS>BOND
     1    17    18    1
     2    18    19    1
     3    18    13    1
     4    13    14   am
     5    14    15    2
     6    14     7    1
     7     7     8   ar
     8     8     9   ar
     9     9    10   ar
    10    10    11   ar
    11    11     1    1
    12     1     2   am
    13     2     3    2
    14     2     4   am
    15     4    20    1
    16    20    21   ar
    17    21    22   ar
    18    22    23   ar
    19    23    26    1
    20    26    27   ar
    21    27    28   ar
    22    28    29   ar
    23    29    30   ar
    24    30    31   ar
    25    23    24   ar
    26    24    25   ar
    27    11    12   ar
    28    12     7   ar
    29    25    20   ar
    30    31    26   ar
    31    13    16    1
    32     1     5    1
    33     4     6    1
@<TRIPOS>MOLECULE
*****
 31 33 0 0 0
SMALL
GASTEIGER

@<TRIPOS>ATOM
      1 N          63.5729   88.4265   16.2127 N.am    1  UNL1       -0.2681
      2 C          64.1114   89.2696   15.0951 C.2     1  UNL1        0.3082
      3 O          64.4066   88.6484   13.7621 O.2     1  UNL1       -0.2522
      4 N          64.3549   90.7340   15.3105 N.am    1  UNL1       -0.2681
      5 H          63.3792   88.8342   17.0876 H       1  UNL1        0.1564
      6 H          64.1612   91.1417   16.1854 H       1  UNL1        0.1564
      7 C          63.4959   84.8511   14.4919 C.ar    1  UNL1        0.0546
      8 C          62.8426   84.0334   15.5664 C.ar    1  UNL1        0.0046
      9 C          62.4328   84.6800   16.8563 C.ar    1  UNL1        0.0014
     10 C          62.6762   86.1444   17.0718 C.ar    1  UNL1        0.0147
     11 C          63.3294   86.9621   15.9973 C.ar    1  UNL1        0.0517
     12 C          63.7393   86.3155   14.7073 C.ar    1  UNL1        0.0192
     13 N          62.9125   84.0586   12.0874 N.am    1  UNL1       -0.3025
     14 C          63.9057   84.2045   13.2020 C.2     1  UNL1        0.2458
     15 O          65.3087   83.7038   13.0266 O.2     1  UNL1       -0.2701
     16 H          61.9916   84.3872   12.2025 H       1  UNL1        0.1497
     17 C          63.4781   81.9220   10.7218 C.3     1  UNL1        0.0213
     18 C          63.3223   83.4120   10.7975 C.3     1  UNL1        0.0720
     19 C          63.5764   84.2553    9.5833 C.3     1  UNL1        0.0213
     20 C          64.8934   91.5771   14.1929 C.ar    1  UNL1        0.0516
     21 C          64.2915   91.4793   12.8225 C.ar    1  UNL1        0.0147
     22 C          64.8300   92.3225   11.7049 C.ar    1  UNL1        0.0013
     23 C          65.9706   93.2634   11.9577 C.ar    1  UNL1        0.0002
     24 C          66.5725   93.3612   13.3281 C.ar    1  UNL1        0.0013
     25 C          66.0339   92.5180   14.4458 C.ar    1  UNL1        0.0147
     26 C          66.5091   94.1065   10.8401 C.ar    1  UNL1        0.0031
     27 C          67.2471   93.4631    9.7037 C.ar    1  UNL1        0.0207
     28 C          67.7856   94.3062    8.5861 C.ar    1  UNL1        0.0989
     29 N          67.5862   95.7929    8.6049 N.ar    1  UNL1       -0.2423
     30 C          66.8483   96.4363    9.7413 C.ar    1  UNL1        0.0989
     31 C          66.3098   95.5931   10.8589 C.ar    1  UNL1        0.0207
@<TRIPOS>BOND
     1    17    18    1
     2    18    19    1
     3    18    13    1
     4    13    14   am
     5    14    15    2
     6    14     7    1
     7     7     8   ar
     8     8     9   ar
     9     9    10   ar
    10    10    11   ar
    11    11     1    1
    12     1     2   am
    13     2     3    2
    14     2     4   am
    15     4    20    1
    16    20    21   ar
    17    21    22   ar
    18    22    23   ar
    19    23    26    1
    20    26    27   ar
    21    27    28   ar
    22    28    29   ar
    23    29    30   ar
    24    30    31   ar
    25    23    24   ar
    26    24    25   ar
    27    11    12   ar
    28    12     7   ar
    29    25    20   ar
    30    31    26   ar
    31    13    16    1
    32     1     5    1
    33     4     6    1
@<TRIPOS>MOLECULE
*****
 31 33 0 0 0
SMALL
GASTEIGER

@<TRIPOS>ATOM
      1 N          64.2247   90.3946   15.9244 N.am    1  UNL1       -0.2681
      2 C          64.1217   89.0354   15.2984 C.2     1  UNL1        0.3082
      3 O          64.8992   88.7216   14.0546 O.2     1  UNL1       -0.2522
      4 N          63.2411   87.9899   15.9162 N.am    1  UNL1       -0.2681
      5 H          63.7144   90.6005   16.7408 H       1  UNL1        0.1564
      6 H          62.7308   88.1958   16.7326 H       1  UNL1        0.1564
      7 C          66.1199   92.5671   13.1971 C.ar    1  UNL1        0.0546
      8 C          66.8664   93.5308   14.0711 C.ar    1  UNL1        0.0046
      9 C          66.7324   93.4492   15.5628 C.ar    1  UNL1        0.0014
     10 C          65.8519   92.4038   16.1806 C.ar    1  UNL1        0.0147
     11 C          65.1054   91.4400   15.3067 C.ar    1  UNL1        0.0517
     12 C          65.2394   91.5217   13.8149 C.ar    1  UNL1        0.0192
     13 N          67.5028   93.2116   11.0942 N.am    1  UNL1       -0.3025
     14 C          66.2540   92.6488   11.7053 C.2     1  UNL1        0.2458
     15 O          65.1391   92.1676   10.8247 O.2     1  UNL1       -0.2701
     16 H          68.2346   93.5274   11.6722 H       1  UNL1        0.1497
     17 C          66.9745   94.4091    8.8499 C.3     1  UNL1        0.0213
     18 C          67.6369   93.2932    9.6024 C.3     1  UNL1        0.0720
     19 C          68.4332   92.2592    8.8632 C.3     1  UNL1        0.0213
     20 C          63.1380   86.6307   15.2902 C.ar    1  UNL1        0.0516
     21 C          63.5287   86.4342   13.8554 C.ar    1  UNL1        0.0147
     22 C          63.4256   85.0750   13.2294 C.ar    1  UNL1        0.0013
     23 C          62.9318   83.9122   14.0382 C.ar    1  UNL1        0.0002
     24 C          62.5411   84.1087   15.4731 C.ar    1  UNL1        0.0013
     25 C          62.6442   85.4680   16.0990 C.ar    1  UNL1        0.0147
     26 C          62.8287   82.5530   13.4122 C.ar    1  UNL1        0.0031
     27 C          62.3329   81.3907   14.2204 C.ar    1  UNL1        0.0207
     28 C          62.2298   80.0315   13.5944 C.ar    1  UNL1        0.0989
     29 N          62.6226   79.8346   12.1601 N.ar    1  UNL1       -0.2423
     30 C          63.1184   80.9969   11.3520 C.ar    1  UNL1        0.0989
     31 C          63.2215   82.3562   11.9780 C.ar    1  UNL1        0.0207
@<TRIPOS>BOND
     1    17    18    1
     2    18    19    1
     3    18    13    1
     4    13    14   am
     5    14    15    2
     6    14     7    1
     7     7     8   ar
     8     8     9   ar
     9     9    10   ar
    10    10    11   ar
    11    11     1    1
    12     1     2   am
    13     2     3    2
    14     2     4   am
    15     4    20    1
    16    20    21   ar
    17    21    22   ar
    18    22    23   ar
    19    23    26    1
    20    26    27   ar
    21    27    28   ar
    22    28    29   ar
    23    29    30   ar
    24    30    31   ar
    25    23    24   ar
    26    24    25   ar
    27    11    12   ar
    28    12     7   ar
    29    25    20   ar
    30    31    26   ar
    31    13    16    1
    32     1     5    1
    33     4     6    1
@<TRIPOS>MOLECULE
*****
 31 33 0 0 0
SMALL
GASTEIGER

@<TRIPOS>ATOM
      1 N          58.8536   90.4587    6.4341 N.am    1  UNL1       -0.2681
      2 C          59.7025   90.9077    5.2819 C.2     1  UNL1        0.3082
      3 O          61.0417   90.2747    5.0455 O.2     1  UNL1       -0.2522
      4 N          59.2122   91.9897    4.3659 N.am    1  UNL1       -0.2681
      5 H          57.9746   90.8741    6.5892 H       1  UNL1        0.1564
      6 H          58.3332   92.4051    4.5210 H       1  UNL1        0.1564
      7 C          60.4962   88.6532    9.5634 C.ar    1  UNL1        0.0546
      8 C          60.3245   87.2128    9.1819 C.ar    1  UNL1        0.0046
      9 C          59.6625   86.8543    7.8846 C.ar    1  UNL1        0.0014
     10 C          59.1722   87.9362    6.9686 C.ar    1  UNL1        0.0147
     11 C          59.3439   89.3766    7.3501 C.ar    1  UNL1        0.0517
     12 C          60.0059   89.7352    8.6474 C.ar    1  UNL1        0.0192
     13 N          62.6424   89.2229   10.9122 N.am    1  UNL1       -0.3025
     14 C          61.1582   89.0118   10.8608 C.2     1  UNL1        0.2458
     15 O          60.3361   89.1592   12.1067 O.2     1  UNL1       -0.2701
     16 H          63.1820   89.1261   10.0945 H       1  UNL1        0.1497
     17 C          63.5853   91.0182   12.5363 C.3     1  UNL1        0.0213
     18 C          63.3044   89.5814   12.2096 C.3     1  UNL1        0.0720
     19 C          63.6855   88.5032   13.1802 C.3     1  UNL1        0.0213
     20 C          60.0610   92.4387    3.2137 C.ar    1  UNL1        0.0516
     21 C          59.4148   92.9567    1.9630 C.ar    1  UNL1        0.0147
     22 C          60.2637   93.4057    0.8108 C.ar    1  UNL1        0.0013
     23 C          61.7589   93.3368    0.9091 C.ar    1  UNL1        0.0002
     24 C          62.4052   92.8188    2.1598 C.ar    1  UNL1        0.0013
     25 C          61.5562   92.3698    3.3120 C.ar    1  UNL1        0.0147
     26 C          62.6078   93.7858   -0.2431 C.ar    1  UNL1        0.0031
     27 C          63.7738   94.6988   -0.0047 C.ar    1  UNL1        0.0207
     28 C          64.6227   95.1478   -1.1569 C.ar    1  UNL1        0.0989
     29 N          64.3056   94.6838   -2.5477 N.ar    1  UNL1       -0.2423
     30 C          63.1396   93.7708   -2.7862 C.ar    1  UNL1        0.0989
     31 C          62.2907   93.3218   -1.6338 C.ar    1  UNL1        0.0207
@<TRIPOS>BOND
     1    17    18    1
     2    18    19    1
     3    18    13    1
     4    13    14   am
     5    14    15    2
     6    14     7    1
     7     7     8   ar
     8     8     9   ar
     9     9    10   ar
    10    10    11   ar
    11    11     1    1
    12     1     2   am
    13     2     3    2
    14     2     4   am
    15     4    20    1
    16    20    21   ar
    17    21    22   ar
    18    22    23   ar
    19    23    26    1
    20    26    27   ar
    21    27    28   ar
    22    28    29   ar
    23    29    30   ar
    24    30    31   ar
    25    23    24   ar
    26    24    25   ar
    27    11    12   ar
    28    12     7   ar
    29    25    20   ar
    30    31    26   ar
    31    13    16    1
    32     1     5    1
    33     4     6    1
@<TRIPOS>MOLECULE
*****
 31 33 0 0 0
SMALL
GASTEIGER

@<TRIPOS>ATOM
      1 N          58.8725   91.6379    4.7151 N.am    1  UNL1       -0.2681
      2 C          59.6147   90.6144    5.5223 C.2     1  UNL1        0.3082
      3 O          61.0028   90.2083    5.1249 O.2     1  UNL1       -0.2522
      4 N          58.9686   89.9971    6.7272 N.am    1  UNL1       -0.2681
      5 H          57.9614   91.9044    4.9760 H       1  UNL1        0.1564
      6 H          58.0575   90.2636    6.9881 H       1  UNL1        0.1564
      7 C          59.3584   93.1156    1.0640 C.ar    1  UNL1        0.0546
      8 C          60.8105   93.4898    1.1006 C.ar    1  UNL1        0.0046
      9 C          61.6166   93.2467    2.3420 C.ar    1  UNL1        0.0014
     10 C          60.9706   92.6294    3.5468 C.ar    1  UNL1        0.0147
     11 C          59.5186   92.2552    3.5102 C.ar    1  UNL1        0.0517
     12 C          58.7124   92.4983    2.2688 C.ar    1  UNL1        0.0192
     13 N          57.8879   92.2103   -0.8771 N.am    1  UNL1       -0.3025
     14 C          58.5523   93.3587   -0.1774 C.2     1  UNL1        0.2458
     15 O          58.4106   94.7503   -0.7191 O.2     1  UNL1       -0.2701
     16 H          57.9809   91.2969   -0.5216 H       1  UNL1        0.1497
     17 C          57.6949   92.2230   -3.4680 C.3     1  UNL1        0.0213
     18 C          57.0818   92.4534   -2.1185 C.3     1  UNL1        0.0720
     19 C          55.6626   92.9268   -2.0105 C.3     1  UNL1        0.0213
     20 C          59.7107   88.9736    7.5345 C.ar    1  UNL1        0.0516
     21 C          60.5663   89.4051    8.6886 C.ar    1  UNL1        0.0147
     22 C          61.3084   88.3817    9.4958 C.ar    1  UNL1        0.0013
     23 C          61.1951   86.9267    9.1491 C.ar    1  UNL1        0.0002
     24 C          60.3395   86.4952    7.9950 C.ar    1  UNL1        0.0013
     25 C          59.5974   87.5187    7.1877 C.ar    1  UNL1        0.0147
     26 C          61.9372   85.9032    9.9564 C.ar    1  UNL1        0.0031
     27 C          61.7401   85.8327   11.4417 C.ar    1  UNL1        0.0207
     28 C          62.4822   84.8092   12.2490 C.ar    1  UNL1        0.0989
     29 N          63.4215   83.8563   11.5709 N.ar    1  UNL1       -0.2423
     30 C          63.6186   83.9268   10.0856 C.ar    1  UNL1        0.0989
     31 C          62.8764   84.9504    9.2783 C.ar    1  UNL1        0.0207
@<TRIPOS>BOND
     1    17    18    1
     2    18    19    1
     3    18    13    1
     4    13    14   am
     5    14    15    2
     6    14     7    1
     7     7     8   ar
     8     8     9   ar
     9     9    10   ar
    10    10    11   ar
    11    11     1    1
    12     1     2   am
    13     2     3    2
    14     2     4   am
    15     4    20    1
    16    20    21   ar
    17    21    22   ar
    18    22    23   ar
    19    23    26    1
    20    26    27   ar
    21    27    28   ar
    22    28    29   ar
    23    29    30   ar
    24    30    31   ar
    25    23    24   ar
    26    24    25   ar
    27    11    12   ar
    28    12     7   ar
    29    25    20   ar
    30    31    26   ar
    31    13    16    1
    32     1     5    1
    33     4     6    1
@<TRIPOS>MOLECULE
*****
 31 33 0 0 0
SMALL
GASTEIGER

@<TRIPOS>ATOM
      1 N          64.8622   90.6559   15.0218 N.am    1  UNL1       -0.2681
      2 C          64.4001   89.9875   13.7610 C.2     1  UNL1        0.3082
      3 O          64.8252   90.5263   12.4273 O.2     1  UNL1       -0.2522
      4 N          63.5128   88.7802   13.8340 N.am    1  UNL1       -0.2681
      5 H          64.5831   90.3022   15.8972 H       1  UNL1        0.1564
      6 H          63.2337   88.4265   14.7093 H       1  UNL1        0.1564
      7 C          66.5639   93.9840   13.6885 C.ar    1  UNL1        0.0546
      8 C          67.5239   94.2776   14.8030 C.ar    1  UNL1        0.0046
      9 C          67.5967   93.3640   15.9904 C.ar    1  UNL1        0.0014
     10 C          66.7095   92.1567   16.0634 C.ar    1  UNL1        0.0147
     11 C          65.7495   91.8631   14.9489 C.ar    1  UNL1        0.0517
     12 C          65.6767   92.7768   13.7615 C.ar    1  UNL1        0.0192
     13 N          66.7493   94.3605   11.1246 N.am    1  UNL1       -0.3025
     14 C          66.4911   94.8976   12.5011 C.2     1  UNL1        0.2458
     15 O          66.1600   96.3483   12.6901 O.2     1  UNL1       -0.2701
     16 H          66.9666   93.4084   11.0005 H       1  UNL1        0.1497
     17 C          67.7506   95.2313    8.8909 C.3     1  UNL1        0.0213
     18 C          66.6765   95.2742    9.9371 C.3     1  UNL1        0.0720
     19 C          65.5297   96.2306    9.7959 C.3     1  UNL1        0.0213
     20 C          63.0506   88.1118   12.5732 C.ar    1  UNL1        0.0516
     21 C          62.5672   88.9394   11.4193 C.ar    1  UNL1        0.0147
     22 C          62.1051   88.2710   10.1585 C.ar    1  UNL1        0.0013
     23 C          62.1264   86.7749   10.0515 C.ar    1  UNL1        0.0002
     24 C          62.6098   85.9473   11.2054 C.ar    1  UNL1        0.0013
     25 C          63.0719   86.6158   12.4662 C.ar    1  UNL1        0.0147
     26 C          61.6643   86.1065    8.7907 C.ar    1  UNL1        0.0031
     27 C          60.2425   86.2602    8.3381 C.ar    1  UNL1        0.0207
     28 C          59.7804   85.5918    7.0773 C.ar    1  UNL1        0.0989
     29 N          60.7401   84.7696    6.2691 N.ar    1  UNL1       -0.2423
     30 C          62.1619   84.6159    6.7217 C.ar    1  UNL1        0.0989
     31 C          62.6240   85.2844    7.9826 C.ar    1  UNL1        0.0207
@<TRIPOS>BOND
     1    17    18    1
     2    18    19    1
     3    18    13    1
     4    13    14   am
     5    14    15    2
     6    14     7    1
     7     7     8   ar
     8     8     9   ar
     9     9    10   ar
    10    10    11   ar
    11    11     1    1
    12     1     2   am
    13     2     3    2
    14     2     4   am
    15     4    20    1
    16    20    21   ar
    17    21    22   ar
    18    22    23   ar
    19    23    26    1
    20    26    27   ar
    21    27    28   ar
    22    28    29   ar
    23    29    30   ar
    24    30    31   ar
    25    23    24   ar
    26    24    25   ar
    27    11    12   ar
    28    12     7   ar
    29    25    20   ar
    30    31    26   ar
    31    13    16    1
    32     1     5    1
    33     4     6    1
@<TRIPOS>MOLECULE
*****
 31 33 0 0 0
SMALL
GASTEIGER

@<TRIPOS>ATOM
      1 N          62.2831   84.9334   11.7518 N.am    1  UNL1       -0.2681
      2 C          61.8339   86.0278   10.8296 C.2     1  UNL1        0.3082
      3 O          62.3528   87.4232   11.0129 O.2     1  UNL1       -0.2522
      4 N          60.8658   85.7269    9.7240 N.am    1  UNL1       -0.2681
      5 H          61.9425   84.0176   11.6314 H       1  UNL1        0.1564
      6 H          60.5252   84.8110    9.6037 H       1  UNL1        0.1564
      7 C          64.2178   86.8867   14.6139 C.ar    1  UNL1        0.0546
      8 C          65.1873   85.8364   15.0684 C.ar    1  UNL1        0.0046
      9 C          65.1888   84.4850   14.4174 C.ar    1  UNL1        0.0014
     10 C          64.2208   84.1840   13.3119 C.ar    1  UNL1        0.0147
     11 C          63.2512   85.2344   12.8574 C.ar    1  UNL1        0.0517
     12 C          63.2497   86.5857   13.5084 C.ar    1  UNL1        0.0192
     13 N          64.8142   89.4147   14.5521 N.am    1  UNL1       -0.3025
     14 C          64.2163   88.2381   15.2649 C.2     1  UNL1        0.2458
     15 O          63.6169   88.4129   16.6287 O.2     1  UNL1       -0.2701
     16 H          65.2076   89.2999   13.6569 H       1  UNL1        0.1497
     17 C          63.7054   91.1453   16.1414 C.3     1  UNL1        0.0213
     18 C          64.8127   90.7660   15.2031 C.3     1  UNL1        0.0720
     19 C          65.9183   91.7381   14.9158 C.3     1  UNL1        0.0213
     20 C          60.4166   86.8213    8.8018 C.ar    1  UNL1        0.0516
     21 C          60.5628   88.2562    9.2136 C.ar    1  UNL1        0.0147
     22 C          60.1137   89.3506    8.2914 C.ar    1  UNL1        0.0013
     23 C          59.5182   89.0101    6.9574 C.ar    1  UNL1        0.0002
     24 C          59.3720   87.5752    6.5456 C.ar    1  UNL1        0.0013
     25 C          59.8212   86.4807    7.4679 C.ar    1  UNL1        0.0147
     26 C          59.0690   90.1045    6.0352 C.ar    1  UNL1        0.0031
     27 C          60.0834   90.9264    5.2966 C.ar    1  UNL1        0.0207
     28 C          59.6342   92.0208    4.3744 C.ar    1  UNL1        0.0989
     29 N          58.1706   92.2934    4.1908 N.ar    1  UNL1       -0.2423
     30 C          57.1563   91.4715    4.9294 C.ar    1  UNL1        0.0989
     31 C          57.6055   90.3770    5.8516 C.ar    1  UNL1        0.0207
@<TRIPOS>BOND
     1    17    18    1
     2    18    19    1
     3    18    13    1
     4    13    14   am
     5    14    15    2
     6    14     7    1
     7     7     8   ar
     8     8     9   ar
     9     9    10   ar
    10    10    11   ar
    11    11     1    1
    12     1     2   am
    13     2     3    2
    14     2     4   am
    15     4    20    1
    16    20    21   ar
    17    21    22   ar
    18    22    23   ar
    19    23    26    1
    20    26    27   ar
    21    27    28   ar
    22    28    29   ar
    23    29    30   ar
    24    30    31   ar
    25    23    24   ar
    26    24    25   ar
    27    11    12   ar
    28    12     7   ar
    29    25    20   ar
    30    31    26   ar
    31    13    16    1
    32     1     5    1
    33     4     6    1
@<TRIPOS>MOLECULE
*****
 31 33 0 0 0
SMALL
GASTEIGER

@<TRIPOS>ATOM
      1 N          58.8221   88.8438    6.3376 N.am    1  UNL1       -0.2681
      2 C          59.7397   88.4783    7.4665 C.2     1  UNL1        0.3082
      3 O          60.8327   89.4190    7.8792 O.2     1  UNL1       -0.2522
      4 N          59.5642   87.1721    8.1829 N.am    1  UNL1       -0.2681
      5 H          58.1047   88.2263    6.0667 H       1  UNL1        0.1564
      6 H          58.8468   86.5547    7.9120 H       1  UNL1        0.1564
      7 C          60.4654   91.7609    4.2068 C.ar    1  UNL1        0.0546
      8 C          59.3487   92.7622    4.1885 C.ar    1  UNL1        0.0046
      9 C          58.0565   92.4574    4.8866 C.ar    1  UNL1        0.0014
     10 C          57.8810   91.1513    5.6029 C.ar    1  UNL1        0.0147
     11 C          58.9976   90.1500    5.6212 C.ar    1  UNL1        0.0517
     12 C          60.2898   90.4548    4.9231 C.ar    1  UNL1        0.0192
     13 N          61.8255   93.1837    2.5110 N.am    1  UNL1       -0.3025
     14 C          61.7576   92.0657    3.5088 C.2     1  UNL1        0.2458
     15 O          62.9819   91.2526    3.8084 O.2     1  UNL1       -0.2701
     16 H          61.0219   93.7174    2.3143 H       1  UNL1        0.1497
     17 C          64.1031   94.4316    2.4372 C.3     1  UNL1        0.0213
     18 C          63.1177   93.4885    1.8130 C.3     1  UNL1        0.0720
     19 C          63.4245   92.8503    0.4907 C.3     1  UNL1        0.0213
     20 C          60.4817   86.8067    9.3118 C.ar    1  UNL1        0.0516
     21 C          60.3402   87.4841   10.6426 C.ar    1  UNL1        0.0147
     22 C          61.2577   87.1187   11.7715 C.ar    1  UNL1        0.0013
     23 C          62.3168   86.0758   11.5697 C.ar    1  UNL1        0.0002
     24 C          62.4583   85.3983   10.2389 C.ar    1  UNL1        0.0013
     25 C          61.5407   85.7638    9.1099 C.ar    1  UNL1        0.0147
     26 C          63.2343   85.7103   12.6987 C.ar    1  UNL1        0.0031
     27 C          63.7091   86.7672   13.6514 C.ar    1  UNL1        0.0207
     28 C          64.6266   86.4017   14.7803 C.ar    1  UNL1        0.0989
     29 N          65.0694   84.9794   14.9566 N.ar    1  UNL1       -0.2423
     30 C          64.5946   83.9226   14.0039 C.ar    1  UNL1        0.0989
     31 C          63.6771   84.2881   12.8749 C.ar    1  UNL1        0.0207
@<TRIPOS>BOND
     1    17    18    1
     2    18    19    1
     3    18    13    1
     4    13    14   am
     5    14    15    2
     6    14     7    1
     7     7     8   ar
     8     8     9   ar
     9     9    10   ar
    10    10    11   ar
    11    11     1    1
    12     1     2   am
    13     2     3    2
    14     2     4   am
    15     4    20    1
    16    20    21   ar
    17    21    22   ar
    18    22    23   ar
    19    23    26    1
    20    26    27   ar
    21    27    28   ar
    22    28    29   ar
    23    29    30   ar
    24    30    31   ar
    25    23    24   ar
    26    24    25   ar
    27    11    12   ar
    28    12     7   ar
    29    25    20   ar
    30    31    26   ar
    31    13    16    1
    32     1     5    1
    33     4     6    1
@<TRIPOS>MOLECULE
*****
 31 33 0 0 0
SMALL
GASTEIGER

@<TRIPOS>ATOM
      1 N          63.9448   88.2263   14.9593 N.am    1  UNL1       -0.2681
      2 C          63.7695   86.9495   14.1919 C.2     1  UNL1        0.3082
      3 O          63.7615   86.9709   12.6921 O.2     1  UNL1       -0.2522
      4 N          63.6022   85.6512   14.9244 N.am    1  UNL1       -0.2681
      5 H          63.9501   88.2123   15.9437 H       1  UNL1        0.1564
      6 H          63.6075   85.6371   15.9088 H       1  UNL1        0.1564
      7 C          65.4842   91.6789   13.7510 C.ar    1  UNL1        0.0546
      8 C          64.4468   92.1212   12.7620 C.ar    1  UNL1        0.0046
      9 C          63.2421   91.2652   12.5054 C.ar    1  UNL1        0.0014
     10 C          63.0747   89.9669   13.2378 C.ar    1  UNL1        0.0147
     11 C          64.1121   89.5247   14.2268 C.ar    1  UNL1        0.0517
     12 C          65.3169   90.3807   14.4834 C.ar    1  UNL1        0.0192
     13 N          67.7127   92.1060   15.0165 N.am    1  UNL1       -0.3025
     14 C          66.6890   92.5349   14.0076 C.2     1  UNL1        0.2458
     15 O          66.8700   93.8199   13.2553 O.2     1  UNL1       -0.2701
     16 H          67.5939   91.2626   15.5103 H       1  UNL1        0.1497
     17 C          68.8168   94.1417   16.1942 C.3     1  UNL1        0.0213
     18 C          68.9174   92.9620   15.2731 C.3     1  UNL1        0.0720
     19 C          70.2227   92.6384   14.6087 C.3     1  UNL1        0.0213
     20 C          63.4269   84.3743   14.1570 C.ar    1  UNL1        0.0516
     21 C          62.4037   83.3695   14.5967 C.ar    1  UNL1        0.0147
     22 C          62.2284   82.0926   13.8293 C.ar    1  UNL1        0.0013
     23 C          63.0764   81.8206   12.6222 C.ar    1  UNL1        0.0002
     24 C          64.0996   82.8254   12.1826 C.ar    1  UNL1        0.0013
     25 C          64.2749   84.1023   12.9500 C.ar    1  UNL1        0.0147
     26 C          62.9011   80.5437   11.8549 C.ar    1  UNL1        0.0031
     27 C          63.0571   80.5378   10.3630 C.ar    1  UNL1        0.0207
     28 C          62.8818   79.2610    9.5956 C.ar    1  UNL1        0.0989
     29 N          62.5505   77.9899   10.3201 N.ar    1  UNL1       -0.2423
     30 C          62.3946   77.9958   11.8120 C.ar    1  UNL1        0.0989
     31 C          62.5699   79.2728   12.5794 C.ar    1  UNL1        0.0207
@<TRIPOS>BOND
     1    17    18    1
     2    18    19    1
     3    18    13    1
     4    13    14   am
     5    14    15    2
     6    14     7    1
     7     7     8   ar
     8     8     9   ar
     9     9    10   ar
    10    10    11   ar
    11    11     1    1
    12     1     2   am
    13     2     3    2
    14     2     4   am
    15     4    20    1
    16    20    21   ar
    17    21    22   ar
    18    22    23   ar
    19    23    26    1
    20    26    27   ar
    21    27    28   ar
    22    28    29   ar
    23    29    30   ar
    24    30    31   ar
    25    23    24   ar
    26    24    25   ar
    27    11    12   ar
    28    12     7   ar
    29    25    20   ar
    30    31    26   ar
    31    13    16    1
    32     1     5    1
    33     4     6    1
