@<TRIPOS>MOLECULE
*****
 32 35 0 0 0
SMALL
GASTEIGER

@<TRIPOS>ATOM
      1 N          63.1409   89.6481   11.7151 N.pl3   1  UNL1       -0.2736
      2 C          63.8107   90.9194   11.2850 C.3     1  UNL1        0.1082
      3 C          64.5547   91.4731   12.4640 C.3     1  UNL1        0.1549
      4 C          65.3962   92.7034   12.6321 C.2     1  UNL1        0.2922
      5 O          65.6063   93.6326   11.4734 O.2     1  UNL1       -0.2563
      6 N          66.0277   93.0045   13.9590 N.am    1  UNL1       -0.1448
      7 C          66.8694   94.2348   14.1271 C.3     1  UNL1        0.2159
      8 C          65.8177   92.0754   15.1176 C.2     1  UNL1        0.3732
      9 N          66.4492   92.3765   16.4446 N.pl3   1  UNL1       -0.2512
     10 N          64.9761   90.8452   14.9495 N.2     1  UNL1       -0.1016
     11 C          64.3446   90.5440   13.6227 C.3     1  UNL1        0.1974
     12 C          63.4709   89.4161   13.1599 C.3     1  UNL1        0.1382
     13 H          67.0016   93.1839   16.5549 H       1  UNL1        0.2412
     14 H          66.3113   91.7667   17.2050 H       1  UNL1        0.2412
     15 C          61.4822   86.3911   10.1687 C.ar    1  UNL1        0.2569
     16 N          62.3327   87.2754   11.0318 N.ar    1  UNL1       -0.1768
     17 C          62.2904   88.7639   10.8520 C.ar    1  UNL1        0.2226
     18 N          61.3977   89.3684    9.8091 N.ar    1  UNL1       -0.2155
     19 C          60.5472   88.4841    8.9460 C.ar    1  UNL1        0.0942
     20 C          59.6545   89.0885    7.9031 C.3     1  UNL1        0.0548
     21 C          60.5895   86.9955    9.1258 C.ar    1  UNL1        0.2065
     22 F          59.7390   86.1114    8.2627 F       1  UNL1       -0.1980
     23 C          62.5889   84.2802   11.2028 C.3     1  UNL1        0.2543
     24 O          61.5245   84.9026   10.3486 O.3     1  UNL1       -0.4545
     25 C          64.0468   89.5276   14.6848 C.ar    1  UNL1        0.0453
     26 C          64.4284   88.0919   14.4771 C.ar    1  UNL1        0.0309
     27 C          64.1305   87.0755   15.5392 C.ar    1  UNL1        0.1401
     28 F          64.5121   85.6397   15.3314 F       1  UNL1       -0.2042
     29 C          63.4512   87.4947   16.8091 C.ar    1  UNL1        0.0319
     30 C          63.0696   88.9305   17.0168 C.ar    1  UNL1        0.0317
     31 C          63.3674   89.9469   15.9547 C.ar    1  UNL1        0.1395
     32 F          62.9859   91.3826   16.1625 F       1  UNL1       -0.2044
@<TRIPOS>BOND
     1    23    24    1
     2    24    15    1
     3    15    16   ar
     4    16    17   ar
     5    17     1    1
     6     1     2    1
     7     3     2    1
     8     3     4    1
     9     4     5    2
    10     4     6   am
    11     6     7    1
    12     6     8    1
    13     8     9    1
    14     8    10    2
    15    10    11    1
    16    11    25    1
    17    25    26   ar
    18    26    27   ar
    19    27    28    1
    20    27    29   ar
    21    29    30   ar
    22    30    31   ar
    23    31    32    1
    24    11    12    1
    25    17    18   ar
    26    18    19   ar
    27    19    20    1
    28    19    21   ar
    29    21    22    1
    30    21    15   ar
    31    12     1    1
    32    11     3    1
    33    31    25   ar
    34     9    13    1
    35     9    14    1
@<TRIPOS>MOLECULE
*****
 32 35 0 0 0
SMALL
GASTEIGER

@<TRIPOS>ATOM
      1 N          63.1089   89.8513   11.6264 N.pl3   1  UNL1       -0.2736
      2 C          63.7995   91.1243   11.2359 C.3     1  UNL1        0.1082
      3 C          64.5812   91.6098   12.4205 C.3     1  UNL1        0.1549
      4 C          65.4551   92.8121   12.6220 C.2     1  UNL1        0.2922
      5 O          65.6626   93.7852   11.4994 O.2     1  UNL1       -0.2563
      6 N          66.1216   93.0414   13.9462 N.am    1  UNL1       -0.1448
      7 C          66.9956   94.2438   14.1477 C.3     1  UNL1        0.2159
      8 C          65.9141   92.0685   15.0687 C.2     1  UNL1        0.3732
      9 N          66.5805   92.2978   16.3929 N.pl3   1  UNL1       -0.2512
     10 N          65.0401   90.8662   14.8672 N.2     1  UNL1       -0.1016
     11 C          64.3737   90.6368   13.5432 C.3     1  UNL1        0.1974
     12 C          63.4637   89.5500   13.0524 C.3     1  UNL1        0.1382
     13 H          67.1542   93.0869   16.5251 H       1  UNL1        0.2412
     14 H          66.4443   91.6592   17.1297 H       1  UNL1        0.2412
     15 C          60.3425   88.8681    8.9560 C.ar    1  UNL1        0.2569
     16 N          61.2320   89.6946    9.8368 N.ar    1  UNL1       -0.1768
     17 C          62.2195   89.0247   10.7457 C.ar    1  UNL1        0.2226
     18 N          62.3177   87.5282   10.7737 N.ar    1  UNL1       -0.2155
     19 C          61.4282   86.7017    9.8929 C.ar    1  UNL1        0.0942
     20 C          61.5264   85.2052    9.9209 C.3     1  UNL1        0.0548
     21 C          60.4407   87.3716    8.9841 C.ar    1  UNL1        0.2065
     22 F          59.5513   86.5450    8.1033 F       1  UNL1       -0.1980
     23 C          59.4724   89.3741    6.5608 C.3     1  UNL1        0.2543
     24 O          59.3550   89.5381    8.0472 O.3     1  UNL1       -0.4545
     25 C          64.0744   89.5828   14.5675 C.ar    1  UNL1        0.0453
     26 C          64.4532   88.1549   14.3072 C.ar    1  UNL1        0.0309
     27 C          64.1538   87.1008   15.3316 C.ar    1  UNL1        0.1401
     28 F          64.5327   85.6730   15.0713 F       1  UNL1       -0.2042
     29 C          63.4757   87.4747   16.6163 C.ar    1  UNL1        0.0319
     30 C          63.0969   88.9025   16.8766 C.ar    1  UNL1        0.0317
     31 C          63.3962   89.9566   15.8522 C.ar    1  UNL1        0.1395
     32 F          63.0174   91.3844   16.1125 F       1  UNL1       -0.2044
@<TRIPOS>BOND
     1    23    24    1
     2    24    15    1
     3    15    16   ar
     4    16    17   ar
     5    17     1    1
     6     1     2    1
     7     3     2    1
     8     3     4    1
     9     4     5    2
    10     4     6   am
    11     6     7    1
    12     6     8    1
    13     8     9    1
    14     8    10    2
    15    10    11    1
    16    11    25    1
    17    25    26   ar
    18    26    27   ar
    19    27    28    1
    20    27    29   ar
    21    29    30   ar
    22    30    31   ar
    23    31    32    1
    24    11    12    1
    25    17    18   ar
    26    18    19   ar
    27    19    20    1
    28    19    21   ar
    29    21    22    1
    30    21    15   ar
    31    12     1    1
    32    11     3    1
    33    31    25   ar
    34     9    13    1
    35     9    14    1
@<TRIPOS>MOLECULE
*****
 32 35 0 0 0
SMALL
GASTEIGER

@<TRIPOS>ATOM
      1 N          62.6862   84.8977   11.9939 N.pl3   1  UNL1       -0.2736
      2 C          63.3753   85.8503   12.9255 C.3     1  UNL1        0.1082
      3 C          63.1610   87.2416   12.4076 C.3     1  UNL1        0.1549
      4 C          63.6078   88.5809   12.9140 C.2     1  UNL1        0.2922
      5 O          64.4293   88.6737   14.1657 O.2     1  UNL1       -0.2563
      6 N          63.2330   89.8277   12.1688 N.am    1  UNL1       -0.1448
      7 C          63.6798   91.1671   12.6752 C.3     1  UNL1        0.2159
      8 C          62.4115   89.7350   10.9173 C.2     1  UNL1        0.3732
      9 N          62.0367   90.9817   10.1720 N.pl3   1  UNL1       -0.2512
     10 N          61.9647   88.3957   10.4108 N.2     1  UNL1       -0.1016
     11 C          62.3394   87.1490   11.1560 C.3     1  UNL1        0.1974
     12 C          62.0460   85.7003   10.9003 C.3     1  UNL1        0.1382
     13 H          62.3299   91.8608   10.5044 H       1  UNL1        0.2412
     14 H          61.4975   90.9209    9.3506 H       1  UNL1        0.2412
     15 C          63.0940   81.0411   11.1509 C.ar    1  UNL1        0.2569
     16 N          63.1355   82.5342   11.0131 N.ar    1  UNL1       -0.1768
     17 C          62.6446   83.4046   12.1318 C.ar    1  UNL1        0.2226
     18 N          62.1121   82.7820   13.3882 N.ar    1  UNL1       -0.2155
     19 C          62.0705   81.2888   13.5260 C.ar    1  UNL1        0.0942
     20 C          61.5380   80.6662   14.7824 C.3     1  UNL1        0.0548
     21 C          62.5614   80.4184   12.4073 C.ar    1  UNL1        0.2065
     22 F          62.5198   78.9253   12.5452 F       1  UNL1       -0.1980
     23 C          62.6916   79.1107    9.4592 C.3     1  UNL1        0.2543
     24 O          63.5849   80.1708   10.0322 O.3     1  UNL1       -0.4545
     25 C          61.5181   86.9007    9.9257 C.ar    1  UNL1        0.0453
     26 C          62.1008   86.1312    8.7775 C.ar    1  UNL1        0.0309
     27 C          61.2794   85.8830    7.5472 C.ar    1  UNL1        0.1401
     28 F          61.8622   85.1135    6.3990 F       1  UNL1       -0.2042
     29 C          59.8753   86.4043    7.4651 C.ar    1  UNL1        0.0319
     30 C          59.2926   87.1738    8.6132 C.ar    1  UNL1        0.0317
     31 C          60.1140   87.4220    9.8436 C.ar    1  UNL1        0.1395
     32 F          59.5312   88.1915   10.9917 F       1  UNL1       -0.2044
@<TRIPOS>BOND
     1    23    24    1
     2    24    15    1
     3    15    16   ar
     4    16    17   ar
     5    17     1    1
     6     1     2    1
     7     3     2    1
     8     3     4    1
     9     4     5    2
    10     4     6   am
    11     6     7    1
    12     6     8    1
    13     8     9    1
    14     8    10    2
    15    10    11    1
    16    11    25    1
    17    25    26   ar
    18    26    27   ar
    19    27    28    1
    20    27    29   ar
    21    29    30   ar
    22    30    31   ar
    23    31    32    1
    24    11    12    1
    25    17    18   ar
    26    18    19   ar
    27    19    20    1
    28    19    21   ar
    29    21    22    1
    30    21    15   ar
    31    12     1    1
    32    11     3    1
    33    31    25   ar
    34     9    13    1
    35     9    14    1
@<TRIPOS>MOLECULE
*****
 32 35 0 0 0
SMALL
GASTEIGER

@<TRIPOS>ATOM
      1 N          62.4481   89.2189   11.6207 N.pl3   1  UNL1       -0.2736
      2 C          61.5537   89.9428   10.6585 C.3     1  UNL1        0.1082
      3 C          60.9888   88.9344    9.7025 C.3     1  UNL1        0.1549
      4 C          60.0483   89.0688    8.5417 C.2     1  UNL1        0.2922
      5 O          59.5030   90.4159    8.1702 O.2     1  UNL1       -0.2563
      6 N          59.6531   87.8560    7.7523 N.am    1  UNL1       -0.1448
      7 C          58.7126   87.9904    6.5915 C.3     1  UNL1        0.2159
      8 C          60.1984   86.5089    8.1238 C.2     1  UNL1        0.3732
      9 N          59.8032   85.2961    7.3344 N.pl3   1  UNL1       -0.2512
     10 N          61.1389   86.3746    9.2845 N.2     1  UNL1       -0.1016
     11 C          61.5341   87.5873   10.0739 C.3     1  UNL1        0.1974
     12 C          62.4360   87.7631   11.2595 C.3     1  UNL1        0.1382
     13 H          59.1859   85.3843    6.5725 H       1  UNL1        0.2412
     14 H          60.1611   84.4120    7.5782 H       1  UNL1        0.2412
     15 C          63.6942   90.0741   15.2904 C.ar    1  UNL1        0.2569
     16 N          62.9230   89.4515   14.1644 N.ar    1  UNL1       -0.1768
     17 C          63.2193   89.8415   12.7466 C.ar    1  UNL1        0.2226
     18 N          64.2868   90.8541   12.4548 N.ar    1  UNL1       -0.2155
     19 C          65.0579   91.4766   13.5808 C.ar    1  UNL1        0.0942
     20 C          66.1254   92.4892   13.2890 C.3     1  UNL1        0.0548
     21 C          64.7616   91.0866   14.9986 C.ar    1  UNL1        0.2065
     22 F          65.5328   91.7092   16.1245 F       1  UNL1       -0.1980
     23 C          63.0378   88.2653   17.0361 C.3     1  UNL1        0.2543
     24 O          63.3978   89.6840   16.7081 O.3     1  UNL1       -0.4545
     25 C          62.1570   86.3126   10.5610 C.ar    1  UNL1        0.0453
     26 C          61.9039   85.8419   11.9625 C.ar    1  UNL1        0.0309
     27 C          62.5268   84.5673   12.4496 C.ar    1  UNL1        0.1401
     28 F          62.2737   84.0966   13.8512 F       1  UNL1       -0.2042
     29 C          63.4028   83.7634   11.5351 C.ar    1  UNL1        0.0319
     30 C          63.6559   84.2341   10.1335 C.ar    1  UNL1        0.0317
     31 C          63.0330   85.5087    9.6465 C.ar    1  UNL1        0.1395
     32 F          63.2861   85.9794    8.2449 F       1  UNL1       -0.2044
@<TRIPOS>BOND
     1    23    24    1
     2    24    15    1
     3    15    16   ar
     4    16    17   ar
     5    17     1    1
     6     1     2    1
     7     3     2    1
     8     3     4    1
     9     4     5    2
    10     4     6   am
    11     6     7    1
    12     6     8    1
    13     8     9    1
    14     8    10    2
    15    10    11    1
    16    11    25    1
    17    25    26   ar
    18    26    27   ar
    19    27    28    1
    20    27    29   ar
    21    29    30   ar
    22    30    31   ar
    23    31    32    1
    24    11    12    1
    25    17    18   ar
    26    18    19   ar
    27    19    20    1
    28    19    21   ar
    29    21    22    1
    30    21    15   ar
    31    12     1    1
    32    11     3    1
    33    31    25   ar
    34     9    13    1
    35     9    14    1
@<TRIPOS>MOLECULE
*****
 32 35 0 0 0
SMALL
GASTEIGER

@<TRIPOS>ATOM
      1 N          62.4320   89.2295   11.6044 N.pl3   1  UNL1       -0.2736
      2 C          61.5395   89.9516   10.6389 C.3     1  UNL1        0.1082
      3 C          60.9793   88.9418    9.6816 C.3     1  UNL1        0.1549
      4 C          60.0423   89.0742    8.5178 C.2     1  UNL1        0.2922
      5 O          59.4961   90.4203    8.1439 O.2     1  UNL1       -0.2563
      6 N          59.6516   87.8604    7.7277 N.am    1  UNL1       -0.1448
      7 C          58.7146   87.9927    6.5638 C.3     1  UNL1        0.2159
      8 C          60.1977   86.5144    8.1016 C.2     1  UNL1        0.3732
      9 N          59.8070   85.3005    7.3115 N.pl3   1  UNL1       -0.2512
     10 N          61.1347   86.3820    9.2654 N.2     1  UNL1       -0.1016
     11 C          61.5255   87.5957   10.0554 C.3     1  UNL1        0.1974
     12 C          62.4233   87.7735   11.2438 C.3     1  UNL1        0.1382
     13 H          59.1920   85.3874    6.5476 H       1  UNL1        0.2412
     14 H          60.1655   84.4171    7.5569 H       1  UNL1        0.2412
     15 C          65.0376   91.4863   13.5712 C.ar    1  UNL1        0.2569
     16 N          64.2709   90.8620   12.4432 N.ar    1  UNL1       -0.1768
     17 C          63.1986   89.8538   12.7325 C.ar    1  UNL1        0.2226
     18 N          62.8928   89.4700   14.1500 N.ar    1  UNL1       -0.2155
     19 C          63.6595   90.0944   15.2780 C.ar    1  UNL1        0.0942
     20 C          63.3537   89.7106   16.6955 C.3     1  UNL1        0.0548
     21 C          64.7318   91.1025   14.9887 C.ar    1  UNL1        0.2065
     22 F          65.4984   91.7268   16.1168 F       1  UNL1       -0.1980
     23 C          65.9795   93.4101   12.1009 C.3     1  UNL1        0.2543
     24 O          66.1099   92.4944   13.2818 O.3     1  UNL1       -0.4545
     25 C          62.1488   86.3223   10.5451 C.ar    1  UNL1        0.0453
     26 C          61.8971   85.8551   11.9481 C.ar    1  UNL1        0.0309
     27 C          62.5204   84.5817   12.4378 C.ar    1  UNL1        0.1401
     28 F          62.2686   84.1146   13.8409 F       1  UNL1       -0.2042
     29 C          63.3954   83.7754   11.5245 C.ar    1  UNL1        0.0319
     30 C          63.6472   84.2426   10.1215 C.ar    1  UNL1        0.0317
     31 C          63.0239   85.5160    9.6318 C.ar    1  UNL1        0.1395
     32 F          63.2756   85.9831    8.2288 F       1  UNL1       -0.2044
@<TRIPOS>BOND
     1    23    24    1
     2    24    15    1
     3    15    16   ar
     4    16    17   ar
     5    17     1    1
     6     1     2    1
     7     3     2    1
     8     3     4    1
     9     4     5    2
    10     4     6   am
    11     6     7    1
    12     6     8    1
    13     8     9    1
    14     8    10    2
    15    10    11    1
    16    11    25    1
    17    25    26   ar
    18    26    27   ar
    19    27    28    1
    20    27    29   ar
    21    29    30   ar
    22    30    31   ar
    23    31    32    1
    24    11    12    1
    25    17    18   ar
    26    18    19   ar
    27    19    20    1
    28    19    21   ar
    29    21    22    1
    30    21    15   ar
    31    12     1    1
    32    11     3    1
    33    31    25   ar
    34     9    13    1
    35     9    14    1
@<TRIPOS>MOLECULE
*****
 32 35 0 0 0
SMALL
GASTEIGER

@<TRIPOS>ATOM
      1 N          62.6112   84.8802   12.0242 N.pl3   1  UNL1       -0.2736
      2 C          63.3248   85.8111   12.9593 C.3     1  UNL1        0.1082
      3 C          63.1549   87.2085   12.4413 C.3     1  UNL1        0.1549
      4 C          63.6398   88.5335   12.9505 C.2     1  UNL1        0.2922
      5 O          64.4584   88.6007   14.2057 O.2     1  UNL1       -0.2563
      6 N          63.3061   89.7913   12.2044 N.am    1  UNL1       -0.1448
      7 C          63.7911   91.1164   12.7136 C.3     1  UNL1        0.2159
      8 C          62.4876   89.7241   10.9493 C.2     1  UNL1        0.3732
      9 N          62.1539   90.9820   10.2032 N.pl3   1  UNL1       -0.2512
     10 N          62.0027   88.3992   10.4402 N.2     1  UNL1       -0.1016
     11 C          62.3363   87.1413   11.1862 C.3     1  UNL1        0.1974
     12 C          62.0003   85.7024   10.9284 C.3     1  UNL1        0.1382
     13 H          62.4721   91.8516   10.5373 H       1  UNL1        0.2412
     14 H          61.6166   90.9378    9.3794 H       1  UNL1        0.2412
     15 C          61.7369   81.2926   13.4786 C.ar    1  UNL1        0.2569
     16 N          61.8243   82.7839   13.3418 N.ar    1  UNL1       -0.1768
     17 C          62.5239   83.3890   12.1610 C.ar    1  UNL1        0.2226
     18 N          63.1362   82.5030   11.1169 N.ar    1  UNL1       -0.2155
     19 C          63.0488   81.0118   11.2538 C.ar    1  UNL1        0.0942
     20 C          63.6610   80.1257   10.2097 C.3     1  UNL1        0.0548
     21 C          62.3492   80.4066   12.4346 C.ar    1  UNL1        0.2065
     22 F          62.2618   78.9154   12.5713 F       1  UNL1       -0.1980
     23 C          59.6631   80.1076   14.5009 C.3     1  UNL1        0.2543
     24 O          61.0373   80.6876   14.6594 O.3     1  UNL1       -0.4545
     25 C          61.5131   86.9186    9.9522 C.ar    1  UNL1        0.0453
     26 C          62.0820   86.1435    8.8009 C.ar    1  UNL1        0.0309
     27 C          61.2588   85.9208    7.5669 C.ar    1  UNL1        0.1401
     28 F          61.8277   85.1457    6.4155 F       1  UNL1       -0.2042
     29 C          59.8667   86.4733    7.4843 C.ar    1  UNL1        0.0319
     30 C          59.2978   87.2484    8.6356 C.ar    1  UNL1        0.0317
     31 C          60.1210   87.4711    9.8696 C.ar    1  UNL1        0.1395
     32 F          59.5521   88.2462   11.0209 F       1  UNL1       -0.2044
@<TRIPOS>BOND
     1    23    24    1
     2    24    15    1
     3    15    16   ar
     4    16    17   ar
     5    17     1    1
     6     1     2    1
     7     3     2    1
     8     3     4    1
     9     4     5    2
    10     4     6   am
    11     6     7    1
    12     6     8    1
    13     8     9    1
    14     8    10    2
    15    10    11    1
    16    11    25    1
    17    25    26   ar
    18    26    27   ar
    19    27    28    1
    20    27    29   ar
    21    29    30   ar
    22    30    31   ar
    23    31    32    1
    24    11    12    1
    25    17    18   ar
    26    18    19   ar
    27    19    20    1
    28    19    21   ar
    29    21    22    1
    30    21    15   ar
    31    12     1    1
    32    11     3    1
    33    31    25   ar
    34     9    13    1
    35     9    14    1
@<TRIPOS>MOLECULE
*****
 32 35 0 0 0
SMALL
GASTEIGER

@<TRIPOS>ATOM
      1 N          63.5158   86.6466   13.2954 N.pl3   1  UNL1       -0.2736
      2 C          63.8095   85.5779   14.3061 C.3     1  UNL1        0.1082
      3 C          63.5513   84.2478   13.6625 C.3     1  UNL1        0.1549
      4 C          63.6704   82.8439   14.1771 C.2     1  UNL1        0.2922
      5 O          64.1237   82.5971   15.5855 O.2     1  UNL1       -0.2563
      6 N          63.3361   81.6866   13.2831 N.am    1  UNL1       -0.1448
      7 C          63.4552   80.2826   13.7977 C.3     1  UNL1        0.2159
      8 C          62.8828   81.9333   11.8748 C.2     1  UNL1        0.3732
      9 N          62.5486   80.7761   10.9808 N.pl3   1  UNL1       -0.2512
     10 N          62.7638   83.3373   11.3602 N.2     1  UNL1       -0.1016
     11 C          63.0980   84.4945   12.2541 C.3     1  UNL1        0.1974
     12 C          63.0761   85.9771   12.0272 C.3     1  UNL1        0.1382
     13 H          62.6267   79.8546   11.3185 H       1  UNL1        0.2412
     14 H          62.2511   80.9380   10.0564 H       1  UNL1        0.2412
     15 C          63.8444   90.5323   12.5577 C.ar    1  UNL1        0.2569
     16 N          63.7201   89.0535   12.3388 N.ar    1  UNL1       -0.1768
     17 C          63.6400   88.1254   13.5144 C.ar    1  UNL1        0.2226
     18 N          63.6842   88.6759   14.9090 N.ar    1  UNL1       -0.2155
     19 C          63.8084   90.1547   15.1279 C.ar    1  UNL1        0.0942
     20 C          63.8525   90.7052   16.5225 C.3     1  UNL1        0.0548
     21 C          63.8885   91.0829   13.9523 C.ar    1  UNL1        0.2065
     22 F          64.0127   92.5616   14.1714 F       1  UNL1       -0.1980
     23 C          63.0801   91.2080   10.1683 C.3     1  UNL1        0.2543
     24 O          63.9245   91.4604   11.3821 O.3     1  UNL1       -0.4545
     25 C          62.6602   84.8944   10.8763 C.ar    1  UNL1        0.0453
     26 C          61.4123   85.7062   10.6920 C.ar    1  UNL1        0.0309
     27 C          60.9745   86.1061    9.3142 C.ar    1  UNL1        0.1401
     28 F          59.7267   86.9179    9.1298 F       1  UNL1       -0.2042
     29 C          61.7845   85.6943    8.1207 C.ar    1  UNL1        0.0319
     30 C          63.0323   84.8825    8.3051 C.ar    1  UNL1        0.0317
     31 C          63.4702   84.4826    9.6829 C.ar    1  UNL1        0.1395
     32 F          64.7180   83.6708    9.8673 F       1  UNL1       -0.2044
@<TRIPOS>BOND
     1    23    24    1
     2    24    15    1
     3    15    16   ar
     4    16    17   ar
     5    17     1    1
     6     1     2    1
     7     3     2    1
     8     3     4    1
     9     4     5    2
    10     4     6   am
    11     6     7    1
    12     6     8    1
    13     8     9    1
    14     8    10    2
    15    10    11    1
    16    11    25    1
    17    25    26   ar
    18    26    27   ar
    19    27    28    1
    20    27    29   ar
    21    29    30   ar
    22    30    31   ar
    23    31    32    1
    24    11    12    1
    25    17    18   ar
    26    18    19   ar
    27    19    20    1
    28    19    21   ar
    29    21    22    1
    30    21    15   ar
    31    12     1    1
    32    11     3    1
    33    31    25   ar
    34     9    13    1
    35     9    14    1
@<TRIPOS>MOLECULE
*****
 32 35 0 0 0
SMALL
GASTEIGER

@<TRIPOS>ATOM
      1 N          60.8806   93.1725   -0.5295 N.pl3   1  UNL1       -0.2736
      2 C          62.0183   93.4785   -1.4579 C.3     1  UNL1        0.1082
      3 C          61.4403   93.8884   -2.7800 C.3     1  UNL1        0.1549
      4 C          62.0821   94.3028   -4.0708 C.2     1  UNL1        0.2922
      5 O          63.5771   94.3555   -4.1823 O.2     1  UNL1       -0.2563
      6 N          61.2289   94.6646   -5.2504 N.am    1  UNL1       -0.1448
      7 C          61.8707   95.0790   -6.5413 C.3     1  UNL1        0.2159
      8 C          59.7340   94.6119   -5.1390 C.2     1  UNL1        0.3732
      9 N          58.8808   94.9737   -6.3186 N.pl3   1  UNL1       -0.2512
     10 N          59.0922   94.1975   -3.8482 N.2     1  UNL1       -0.1016
     11 C          59.9453   93.8358   -2.6686 C.3     1  UNL1        0.1974
     12 C          59.5994   93.3933   -1.2777 C.3     1  UNL1        0.1382
     13 H          59.3020   95.2457   -7.1658 H       1  UNL1        0.2412
     14 H          57.8996   94.9391   -6.2454 H       1  UNL1        0.2412
     15 C          60.0118   92.5467    3.2920 C.ar    1  UNL1        0.2569
     16 N          59.8899   92.9948    1.8657 N.ar    1  UNL1       -0.1768
     17 C          61.0026   92.7244    0.8968 C.ar    1  UNL1        0.2226
     18 N          62.2373   92.0060    1.3542 N.ar    1  UNL1       -0.2155
     19 C          62.3593   91.5579    2.7806 C.ar    1  UNL1        0.0942
     20 C          63.5940   90.8394    3.2380 C.3     1  UNL1        0.0548
     21 C          61.2466   91.8282    3.7494 C.ar    1  UNL1        0.2065
     22 F          61.3686   91.3801    5.1757 F       1  UNL1       -0.1980
     23 C          58.0774   91.6817    4.7953 C.3     1  UNL1        0.2543
     24 O          58.8991   92.8171    4.2608 O.3     1  UNL1       -0.4545
     25 C          58.4714   93.7366   -2.4088 C.ar    1  UNL1        0.0453
     26 C          57.7602   92.4316   -2.6117 C.ar    1  UNL1        0.0309
     27 C          56.2862   92.3324   -2.3519 C.ar    1  UNL1        0.1401
     28 F          55.5750   91.0274   -2.5548 F       1  UNL1       -0.2042
     29 C          55.5234   93.5382   -1.8891 C.ar    1  UNL1        0.0319
     30 C          56.2346   94.8432   -1.6862 C.ar    1  UNL1        0.0317
     31 C          57.7086   94.9424   -1.9460 C.ar    1  UNL1        0.1395
     32 F          58.4198   96.2474   -1.7431 F       1  UNL1       -0.2044
@<TRIPOS>BOND
     1    23    24    1
     2    24    15    1
     3    15    16   ar
     4    16    17   ar
     5    17     1    1
     6     1     2    1
     7     3     2    1
     8     3     4    1
     9     4     5    2
    10     4     6   am
    11     6     7    1
    12     6     8    1
    13     8     9    1
    14     8    10    2
    15    10    11    1
    16    11    25    1
    17    25    26   ar
    18    26    27   ar
    19    27    28    1
    20    27    29   ar
    21    29    30   ar
    22    30    31   ar
    23    31    32    1
    24    11    12    1
    25    17    18   ar
    26    18    19   ar
    27    19    20    1
    28    19    21   ar
    29    21    22    1
    30    21    15   ar
    31    12     1    1
    32    11     3    1
    33    31    25   ar
    34     9    13    1
    35     9    14    1
@<TRIPOS>MOLECULE
*****
 32 35 0 0 0
SMALL
GASTEIGER

@<TRIPOS>ATOM
      1 N          63.6063   86.9792   12.9903 N.pl3   1  UNL1       -0.2736
      2 C          63.8413   86.0346   14.1315 C.3     1  UNL1        0.1082
      3 C          63.4879   84.6521   13.6692 C.3     1  UNL1        0.1549
      4 C          63.5204   83.3227   14.3632 C.2     1  UNL1        0.2922
      5 O          63.9738   83.2324   15.7902 O.2     1  UNL1       -0.2563
      6 N          63.0993   82.0835   13.6302 N.am    1  UNL1       -0.1448
      7 C          63.1318   80.7540   14.3243 C.3     1  UNL1        0.2159
      8 C          62.6459   82.1737   12.2033 C.2     1  UNL1        0.3732
      9 N          62.2249   80.9345   11.4703 N.pl3   1  UNL1       -0.2512
     10 N          62.6134   83.5031   11.5093 N.2     1  UNL1       -0.1016
     11 C          63.0344   84.7423   12.2422 C.3     1  UNL1        0.1974
     12 C          63.1076   86.1805   11.8226 C.3     1  UNL1        0.1382
     13 H          62.2462   80.0620   11.9258 H       1  UNL1        0.2412
     14 H          61.9273   80.9938   10.5338 H       1  UNL1        0.2412
     15 C          64.6594   90.5940   14.2450 C.ar    1  UNL1        0.2569
     16 N          64.4351   89.1110   14.2225 N.ar    1  UNL1       -0.1768
     17 C          63.8306   88.4621   13.0127 C.ar    1  UNL1        0.2226
     18 N          63.4504   89.2962   11.8254 N.ar    1  UNL1       -0.2155
     19 C          63.6748   90.7792   11.8480 C.ar    1  UNL1        0.0942
     20 C          63.2946   91.6133   10.6606 C.3     1  UNL1        0.0548
     21 C          64.2793   91.4281   13.0577 C.ar    1  UNL1        0.2065
     22 F          64.5036   92.9111   13.0802 F       1  UNL1       -0.1980
     23 C          66.5478   92.0088   15.3325 C.3     1  UNL1        0.2543
     24 O          65.2639   91.2428   15.4548 O.3     1  UNL1       -0.4545
     25 C          62.6069   84.9870   10.8254 C.ar    1  UNL1        0.0453
     26 C          61.3577   85.7680   10.5432 C.ar    1  UNL1        0.0309
     27 C          60.9301   86.0127    9.1265 C.ar    1  UNL1        0.1401
     28 F          59.6809   86.7937    8.8443 F       1  UNL1       -0.2042
     29 C          61.7518   85.4764    7.9919 C.ar    1  UNL1        0.0319
     30 C          63.0010   84.6955    8.2741 C.ar    1  UNL1        0.0317
     31 C          63.4285   84.4507    9.6909 C.ar    1  UNL1        0.1395
     32 F          64.6777   83.6697    9.9730 F       1  UNL1       -0.2044
@<TRIPOS>BOND
     1    23    24    1
     2    24    15    1
     3    15    16   ar
     4    16    17   ar
     5    17     1    1
     6     1     2    1
     7     3     2    1
     8     3     4    1
     9     4     5    2
    10     4     6   am
    11     6     7    1
    12     6     8    1
    13     8     9    1
    14     8    10    2
    15    10    11    1
    16    11    25    1
    17    25    26   ar
    18    26    27   ar
    19    27    28    1
    20    27    29   ar
    21    29    30   ar
    22    30    31   ar
    23    31    32    1
    24    11    12    1
    25    17    18   ar
    26    18    19   ar
    27    19    20    1
    28    19    21   ar
    29    21    22    1
    30    21    15   ar
    31    12     1    1
    32    11     3    1
    33    31    25   ar
    34     9    13    1
    35     9    14    1
