@<TRIPOS>MOLECULE
*****
 29 33 0 0 0
SMALL
GASTEIGER

@<TRIPOS>ATOM
      1 O          64.3104   85.6395   14.8324 O.2     1  UNL1       -0.2911
      2 C          63.5985   85.2344   13.5758 C.2     1  UNL1        0.1795
      3 C          63.0205   86.2813   12.6704 C.3     1  UNL1        0.1092
      4 C          62.3085   85.8761   11.4137 C.3     1  UNL1        0.1436
      5 C          61.5966   85.4709   10.1572 C.3     1  UNL1        0.0620
      6 C          61.0186   86.5178    9.2518 C.3     1  UNL1        0.0985
      7 N          61.1525   87.9700    9.6030 N.am    1  UNL1       -0.2640
      8 C          60.5744   89.0169    8.6975 C.2     1  UNL1        0.3039
      9 O          60.7083   90.4691    9.0487 O.2     1  UNL1       -0.2526
     10 N          59.8625   88.6117    7.4410 N.am    1  UNL1       -0.2901
     11 C          61.8644   88.3752   10.8596 C.3     1  UNL1        0.0985
     12 C          62.4424   87.3283   11.7649 C.3     1  UNL1        0.0620
     13 O          62.1747   84.4239   11.0626 O.3     1  UNL1       -0.4819
     14 C          62.7527   83.3770   11.9680 C.ar    1  UNL1        0.1409
     15 C          62.6189   81.9248   11.6168 C.ar    1  UNL1        0.0370
     16 C          63.1969   80.8779   12.5222 C.ar    1  UNL1        0.0031
     17 C          63.9089   81.2831   13.7789 C.ar    1  UNL1        0.0003
     18 C          64.0427   82.7352   14.1300 C.ar    1  UNL1        0.0059
     19 C          63.4646   83.7822   13.2246 C.ar    1  UNL1        0.0687
     20 H          59.7747   87.6586    7.2105 H       1  UNL1        0.1509
     21 C          59.2844   89.6587    6.5355 C.3     1  UNL1        0.0774
     22 C          58.1111   90.4679    6.0683 C.3     1  UNL1        0.0259
     23 C          59.4566   90.6628    5.4346 C.3     1  UNL1        0.0420
     24 C          60.3328   91.3551    4.4331 C.ar    1  UNL1       -0.0208
     25 C          59.7758   92.4615    3.5872 C.ar    1  UNL1       -0.0042
     26 C          60.6520   93.1538    2.5858 C.ar    1  UNL1       -0.0003
     27 C          62.0853   92.7396    2.4301 C.ar    1  UNL1       -0.0000
     28 C          62.6423   91.6331    3.2760 C.ar    1  UNL1       -0.0003
     29 C          61.7660   90.9409    4.2775 C.ar    1  UNL1       -0.0042
@<TRIPOS>BOND
     1     1     2    2
     2     2     3    1
     3     3     4    1
     4     4     5    1
     5     5     6    1
     6     6     7    1
     7     7     8   am
     8     8     9    2
     9     8    10   am
    10    21    10    1
    11    21    22    1
    12    22    23    1
    13    23    24    1
    14    24    25   ar
    15    25    26   ar
    16    26    27   ar
    17    27    28   ar
    18    28    29   ar
    19     7    11    1
    20    11    12    1
    21     4    13    1
    22    13    14    1
    23    14    15   ar
    24    15    16   ar
    25    16    17   ar
    26    17    18   ar
    27    18    19   ar
    28    19     2    1
    29    12     4    1
    30    19    14   ar
    31    23    21    1
    32    29    24   ar
    33    10    20    1
@<TRIPOS>MOLECULE
*****
 29 33 0 0 0
SMALL
GASTEIGER

@<TRIPOS>ATOM
      1 O          62.5671   79.2793   14.8002 O.2     1  UNL1       -0.2911
      2 C          62.7796   80.3735   13.7964 C.2     1  UNL1        0.1795
      3 C          62.9724   81.7876   14.2580 C.3     1  UNL1        0.1092
      4 C          63.1850   82.8819   13.2542 C.3     1  UNL1        0.1436
      5 C          63.3975   83.9760   12.2504 C.3     1  UNL1        0.0620
      6 C          63.5903   85.3901   12.7119 C.3     1  UNL1        0.0985
      7 N          63.5706   85.7101   14.1773 N.am    1  UNL1       -0.2640
      8 C          63.7634   87.1243   14.6388 C.2     1  UNL1        0.3039
      9 O          63.7437   87.4442   16.1042 O.2     1  UNL1       -0.2526
     10 N          63.9760   88.2184   13.6350 N.am    1  UNL1       -0.2901
     11 C          63.3581   84.6159   15.1811 C.3     1  UNL1        0.0985
     12 C          63.1653   83.2018   14.7195 C.3     1  UNL1        0.0620
     13 O          63.2047   82.5619   11.7888 O.3     1  UNL1       -0.4819
     14 C          63.0118   81.1477   11.3273 C.ar    1  UNL1        0.1409
     15 C          63.0315   80.8278    9.8619 C.ar    1  UNL1        0.0370
     16 C          62.8387   79.4137    9.4004 C.ar    1  UNL1        0.0031
     17 C          62.6261   78.3194   10.4042 C.ar    1  UNL1        0.0003
     18 C          62.6065   78.6394   11.8695 C.ar    1  UNL1        0.0059
     19 C          62.7993   80.0536   12.3311 C.ar    1  UNL1        0.0687
     20 H          63.9889   88.0084   12.6733 H       1  UNL1        0.1509
     21 C          64.1688   89.6326   14.0966 C.3     1  UNL1        0.0774
     22 C          64.0971   90.6663   15.1811 C.3     1  UNL1        0.0259
     23 C          64.5744   91.0483   13.8114 C.3     1  UNL1        0.0420
     24 C          65.0842   92.0861   12.8559 C.ar    1  UNL1       -0.0208
     25 C          65.9725   93.1890   13.3504 C.ar    1  UNL1       -0.0042
     26 C          66.4823   94.2269   12.3949 C.ar    1  UNL1       -0.0003
     27 C          66.1037   94.1619   10.9449 C.ar    1  UNL1       -0.0000
     28 C          65.2154   93.0590   10.4504 C.ar    1  UNL1       -0.0003
     29 C          64.7057   92.0211   11.4060 C.ar    1  UNL1       -0.0042
@<TRIPOS>BOND
     1     1     2    2
     2     2     3    1
     3     3     4    1
     4     4     5    1
     5     5     6    1
     6     6     7    1
     7     7     8   am
     8     8     9    2
     9     8    10   am
    10    21    10    1
    11    21    22    1
    12    22    23    1
    13    23    24    1
    14    24    25   ar
    15    25    26   ar
    16    26    27   ar
    17    27    28   ar
    18    28    29   ar
    19     7    11    1
    20    11    12    1
    21     4    13    1
    22    13    14    1
    23    14    15   ar
    24    15    16   ar
    25    16    17   ar
    26    17    18   ar
    27    18    19   ar
    28    19     2    1
    29    12     4    1
    30    19    14   ar
    31    23    21    1
    32    29    24   ar
    33    10    20    1
@<TRIPOS>MOLECULE
*****
 29 33 0 0 0
SMALL
GASTEIGER

@<TRIPOS>ATOM
      1 O          62.3789   79.5221   14.8650 O.2     1  UNL1       -0.2911
      2 C          62.6780   80.6680   13.9443 C.2     1  UNL1        0.1795
      3 C          62.8534   82.0502   14.4997 C.3     1  UNL1        0.1092
      4 C          63.1524   83.1961   13.5790 C.3     1  UNL1        0.1436
      5 C          63.4515   84.3419   12.6583 C.3     1  UNL1        0.0620
      6 C          63.6269   85.7242   13.2137 C.3     1  UNL1        0.0985
      7 N          63.5033   85.9606   14.6898 N.am    1  UNL1       -0.2640
      8 C          63.6787   87.3430   15.2452 C.2     1  UNL1        0.3039
      9 O          63.5551   87.5795   16.7213 O.2     1  UNL1       -0.2526
     10 N          63.9778   88.4888   14.3245 N.am    1  UNL1       -0.2901
     11 C          63.2042   84.8149   15.6105 C.3     1  UNL1        0.0985
     12 C          63.0288   83.4326   15.0551 C.3     1  UNL1        0.0620
     13 O          63.2761   82.9596   12.1029 O.3     1  UNL1       -0.4819
     14 C          63.1006   81.5773   11.5476 C.ar    1  UNL1        0.1409
     15 C          63.2243   81.3408   10.0715 C.ar    1  UNL1        0.0370
     16 C          63.0488   79.9585    9.5161 C.ar    1  UNL1        0.0031
     17 C          62.7498   78.8126   10.4368 C.ar    1  UNL1        0.0003
     18 C          62.6262   79.0491   11.9129 C.ar    1  UNL1        0.0059
     19 C          62.8016   80.4315   12.4682 C.ar    1  UNL1        0.0687
     20 H          64.0589   88.3336   13.3557 H       1  UNL1        0.1509
     21 C          64.1532   89.8712   14.8799 C.3     1  UNL1        0.0774
     22 C          63.5802   91.0832   15.5525 C.3     1  UNL1        0.0259
     23 C          65.0300   91.0533   15.1692 C.3     1  UNL1        0.0420
     24 C          66.3734   91.7185   15.1149 C.ar    1  UNL1       -0.0208
     25 C          67.3218   91.4030   13.9964 C.ar    1  UNL1       -0.0042
     26 C          68.6651   92.0682   13.9422 C.ar    1  UNL1       -0.0003
     27 C          69.0601   93.0489   15.0063 C.ar    1  UNL1       -0.0000
     28 C          68.1116   93.3643   16.1248 C.ar    1  UNL1       -0.0003
     29 C          66.7682   92.6991   16.1790 C.ar    1  UNL1       -0.0042
@<TRIPOS>BOND
     1     1     2    2
     2     2     3    1
     3     3     4    1
     4     4     5    1
     5     5     6    1
     6     6     7    1
     7     7     8   am
     8     8     9    2
     9     8    10   am
    10    21    10    1
    11    21    22    1
    12    22    23    1
    13    23    24    1
    14    24    25   ar
    15    25    26   ar
    16    26    27   ar
    17    27    28   ar
    18    28    29   ar
    19     7    11    1
    20    11    12    1
    21     4    13    1
    22    13    14    1
    23    14    15   ar
    24    15    16   ar
    25    16    17   ar
    26    17    18   ar
    27    18    19   ar
    28    19     2    1
    29    12     4    1
    30    19    14   ar
    31    23    21    1
    32    29    24   ar
    33    10    20    1
@<TRIPOS>MOLECULE
*****
 29 33 0 0 0
SMALL
GASTEIGER

@<TRIPOS>ATOM
      1 O          72.1308   83.4384   10.0638 O.2     1  UNL1       -0.2911
      2 C          72.2568   81.9514    9.9111 C.2     1  UNL1        0.1795
      3 C          72.3904   81.0814   11.1256 C.3     1  UNL1        0.1092
      4 C          72.5164   79.5945   10.9729 C.3     1  UNL1        0.1436
      5 C          72.6425   78.1076   10.8201 C.3     1  UNL1        0.0620
      6 C          72.7760   77.2376   12.0347 C.3     1  UNL1        0.0985
      7 N          72.7835   77.8544   13.4020 N.am    1  UNL1       -0.2640
      8 C          72.9171   76.9843   14.6166 C.2     1  UNL1        0.3039
      9 O          72.9246   77.6010   15.9839 O.2     1  UNL1       -0.2526
     10 N          73.0431   75.4974   14.4638 N.am    1  UNL1       -0.2901
     11 C          72.6575   79.3412   13.5548 C.3     1  UNL1        0.0985
     12 C          72.5239   80.2113   12.3402 C.3     1  UNL1        0.0620
     13 O          72.5089   78.9777    9.6056 O.3     1  UNL1       -0.4819
     14 C          72.3753   79.8478    8.3910 C.ar    1  UNL1        0.1409
     15 C          72.3678   79.2310    7.0237 C.ar    1  UNL1        0.0370
     16 C          72.2343   80.1011    5.8092 C.ar    1  UNL1        0.0031
     17 C          72.1082   81.5880    5.9619 C.ar    1  UNL1        0.0003
     18 C          72.1157   82.2048    7.3292 C.ar    1  UNL1        0.0059
     19 C          72.2493   81.3347    8.5438 C.ar    1  UNL1        0.0687
     20 H          73.0382   75.0926   13.5664 H       1  UNL1        0.1509
     21 C          73.1767   74.6273   15.6784 C.3     1  UNL1        0.0774
     22 C          73.6329   74.4341   17.0941 C.3     1  UNL1        0.0259
     23 C          72.9518   73.3134   16.3662 C.3     1  UNL1        0.0420
     24 C          72.4287   71.9078   16.3430 C.ar    1  UNL1       -0.0208
     25 C          71.7770   71.3298   17.5642 C.ar    1  UNL1       -0.0042
     26 C          71.2539   69.9242   17.5410 C.ar    1  UNL1       -0.0003
     27 C          71.3824   69.0965   16.2966 C.ar    1  UNL1       -0.0000
     28 C          72.0341   69.6745   15.0754 C.ar    1  UNL1       -0.0003
     29 C          72.5573   71.0802   15.0987 C.ar    1  UNL1       -0.0042
@<TRIPOS>BOND
     1     1     2    2
     2     2     3    1
     3     3     4    1
     4     4     5    1
     5     5     6    1
     6     6     7    1
     7     7     8   am
     8     8     9    2
     9     8    10   am
    10    21    10    1
    11    21    22    1
    12    22    23    1
    13    23    24    1
    14    24    25   ar
    15    25    26   ar
    16    26    27   ar
    17    27    28   ar
    18    28    29   ar
    19     7    11    1
    20    11    12    1
    21     4    13    1
    22    13    14    1
    23    14    15   ar
    24    15    16   ar
    25    16    17   ar
    26    17    18   ar
    27    18    19   ar
    28    19     2    1
    29    12     4    1
    30    19    14   ar
    31    23    21    1
    32    29    24   ar
    33    10    20    1
@<TRIPOS>MOLECULE
*****
 29 33 0 0 0
SMALL
GASTEIGER

@<TRIPOS>ATOM
      1 O          59.6970   95.8716   -0.2514 O.2     1  UNL1       -0.2911
      2 C          60.6367   94.9812    0.5065 C.2     1  UNL1        0.1795
      3 C          60.1094   94.0725    1.5771 C.3     1  UNL1        0.1092
      4 C          61.0491   93.1821    2.3349 C.3     1  UNL1        0.1436
      5 C          61.9887   92.2917    3.0927 C.3     1  UNL1        0.0620
      6 C          61.4615   91.3830    4.1633 C.3     1  UNL1        0.0985
      7 N          59.9945   91.3646    4.4761 N.am    1  UNL1       -0.2640
      8 C          59.4673   90.4558    5.5467 C.2     1  UNL1        0.3039
      9 O          58.0004   90.4375    5.8595 O.2     1  UNL1       -0.2526
     10 N          60.4069   89.5655    6.3045 N.am    1  UNL1       -0.2901
     11 C          59.0549   92.2550    3.7183 C.3     1  UNL1        0.0985
     12 C          59.5822   93.1637    2.6477 C.3     1  UNL1        0.0620
     13 O          62.5160   93.2005    2.0222 O.3     1  UNL1       -0.4819
     14 C          63.0432   94.1093    0.9515 C.ar    1  UNL1        0.1409
     15 C          64.5101   94.1276    0.6388 C.ar    1  UNL1        0.0370
     16 C          65.0374   95.0364   -0.4318 C.ar    1  UNL1        0.0031
     17 C          64.0977   95.9268   -1.1897 C.ar    1  UNL1        0.0003
     18 C          62.6308   95.9084   -0.8769 C.ar    1  UNL1        0.0059
     19 C          62.1036   94.9996    0.1937 C.ar    1  UNL1        0.0687
     20 H          61.3697   89.5776    6.0992 H       1  UNL1        0.1509
     21 C          59.8797   88.6567    7.3752 C.3     1  UNL1        0.0774
     22 C          58.7291   88.1253    8.1775 C.3     1  UNL1        0.0259
     23 C          60.1171   87.6142    8.4272 C.3     1  UNL1        0.0420
     24 C          61.0554   86.7172    9.1787 C.ar    1  UNL1       -0.0208
     25 C          62.0516   85.8800    8.4325 C.ar    1  UNL1       -0.0042
     26 C          62.9900   84.9830    9.1841 C.ar    1  UNL1       -0.0003
     27 C          62.9322   84.9231   10.6818 C.ar    1  UNL1       -0.0000
     28 C          61.9360   85.7603   11.4279 C.ar    1  UNL1       -0.0003
     29 C          60.9976   86.6573   10.6763 C.ar    1  UNL1       -0.0042
@<TRIPOS>BOND
     1     1     2    2
     2     2     3    1
     3     3     4    1
     4     4     5    1
     5     5     6    1
     6     6     7    1
     7     7     8   am
     8     8     9    2
     9     8    10   am
    10    21    10    1
    11    21    22    1
    12    22    23    1
    13    23    24    1
    14    24    25   ar
    15    25    26   ar
    16    26    27   ar
    17    27    28   ar
    18    28    29   ar
    19     7    11    1
    20    11    12    1
    21     4    13    1
    22    13    14    1
    23    14    15   ar
    24    15    16   ar
    25    16    17   ar
    26    17    18   ar
    27    18    19   ar
    28    19     2    1
    29    12     4    1
    30    19    14   ar
    31    23    21    1
    32    29    24   ar
    33    10    20    1
@<TRIPOS>MOLECULE
*****
 29 33 0 0 0
SMALL
GASTEIGER

@<TRIPOS>ATOM
      1 O          59.5844   95.9097   -1.6216 O.2     1  UNL1       -0.2911
      2 C          60.5524   95.2009   -0.7212 C.2     1  UNL1        0.1795
      3 C          60.0453   94.3787    0.4263 C.3     1  UNL1        0.1092
      4 C          61.0133   93.6700    1.3267 C.3     1  UNL1        0.1436
      5 C          61.9813   92.9613    2.2270 C.3     1  UNL1        0.0620
      6 C          61.4742   92.1391    3.3745 C.3     1  UNL1        0.0985
      7 N          59.9991   92.0256    3.6217 N.am    1  UNL1       -0.2640
      8 C          59.4920   91.2034    4.7693 C.2     1  UNL1        0.3039
      9 O          58.0169   91.0899    5.0164 O.2     1  UNL1       -0.2526
     10 N          60.4600   90.4947    5.6696 N.am    1  UNL1       -0.2901
     11 C          59.0311   92.7343    2.7214 C.3     1  UNL1        0.0985
     12 C          59.5382   93.5565    1.5739 C.3     1  UNL1        0.0620
     13 O          62.4885   93.7835    1.0795 O.3     1  UNL1       -0.4819
     14 C          62.9956   94.6057   -0.0680 C.ar    1  UNL1        0.1409
     15 C          64.4707   94.7192   -0.3152 C.ar    1  UNL1        0.0370
     16 C          64.9778   95.5414   -1.4627 C.ar    1  UNL1        0.0031
     17 C          64.0098   96.2502   -2.3631 C.ar    1  UNL1        0.0003
     18 C          62.5346   96.1367   -2.1159 C.ar    1  UNL1        0.0059
     19 C          62.0275   95.3144   -0.9684 C.ar    1  UNL1        0.0687
     20 H          61.4282   90.5692    5.5073 H       1  UNL1        0.1509
     21 C          59.9529   89.6724    6.8172 C.3     1  UNL1        0.0774
     22 C          59.0166   88.6317    7.3557 C.3     1  UNL1        0.0259
     23 C          60.0109   89.2891    8.2662 C.3     1  UNL1        0.0420
     24 C          60.6186   89.4473    9.6284 C.ar    1  UNL1       -0.0208
     25 C          62.0877   89.2178    9.8256 C.ar    1  UNL1       -0.0042
     26 C          62.6953   89.3761   11.1878 C.ar    1  UNL1       -0.0003
     27 C          61.8338   89.7638   12.3530 C.ar    1  UNL1       -0.0000
     28 C          60.3646   89.9932   12.1558 C.ar    1  UNL1       -0.0003
     29 C          59.7570   89.8350   10.7934 C.ar    1  UNL1       -0.0042
@<TRIPOS>BOND
     1     1     2    2
     2     2     3    1
     3     3     4    1
     4     4     5    1
     5     5     6    1
     6     6     7    1
     7     7     8   am
     8     8     9    2
     9     8    10   am
    10    21    10    1
    11    21    22    1
    12    22    23    1
    13    23    24    1
    14    24    25   ar
    15    25    26   ar
    16    26    27   ar
    17    27    28   ar
    18    28    29   ar
    19     7    11    1
    20    11    12    1
    21     4    13    1
    22    13    14    1
    23    14    15   ar
    24    15    16   ar
    25    16    17   ar
    26    17    18   ar
    27    18    19   ar
    28    19     2    1
    29    12     4    1
    30    19    14   ar
    31    23    21    1
    32    29    24   ar
    33    10    20    1
@<TRIPOS>MOLECULE
*****
 29 33 0 0 0
SMALL
GASTEIGER

@<TRIPOS>ATOM
      1 O          67.1046   94.0741   15.1293 O.2     1  UNL1       -0.2911
      2 C          66.3615   93.2287   14.1378 C.2     1  UNL1        0.1795
      3 C          65.9221   91.8444   14.5129 C.3     1  UNL1        0.1092
      4 C          65.1790   90.9989   13.5214 C.3     1  UNL1        0.1436
      5 C          64.4359   90.1535   12.5299 C.3     1  UNL1        0.0620
      6 C          63.9965   88.7692   12.9049 C.3     1  UNL1        0.0985
      7 N          64.3003   88.2303   14.2714 N.am    1  UNL1       -0.2640
      8 C          63.8609   86.8460   14.6464 C.2     1  UNL1        0.3039
      9 O          64.1647   86.3071   16.0129 O.2     1  UNL1       -0.2526
     10 N          63.1178   86.0006   13.6550 N.am    1  UNL1       -0.2901
     11 C          65.0434   89.0757   15.2629 C.3     1  UNL1        0.0985
     12 C          65.4828   90.4600   14.8879 C.3     1  UNL1        0.0620
     13 O          64.8752   91.5378   12.1549 O.3     1  UNL1       -0.4819
     14 C          65.3145   92.9222   11.7799 C.ar    1  UNL1        0.1409
     15 C          65.0108   93.4611   10.4134 C.ar    1  UNL1        0.0370
     16 C          65.4501   94.8454   10.0384 C.ar    1  UNL1        0.0031
     17 C          66.1932   95.6908   11.0299 C.ar    1  UNL1        0.0003
     18 C          66.4970   95.1519   12.3963 C.ar    1  UNL1        0.0059
     19 C          66.0577   93.7676   12.7713 C.ar    1  UNL1        0.0687
     20 H          62.9184   86.3543   12.7581 H       1  UNL1        0.1509
     21 C          62.6785   84.6162   14.0300 C.3     1  UNL1        0.0774
     22 C          62.0830   83.6680   15.0281 C.3     1  UNL1        0.0259
     23 C          62.5129   83.1667   13.6813 C.3     1  UNL1        0.0420
     24 C          62.6656   82.0404   12.7025 C.ar    1  UNL1       -0.0208
     25 C          62.3689   80.6326   13.1268 C.ar    1  UNL1       -0.0042
     26 C          62.5216   79.5063   12.1479 C.ar    1  UNL1       -0.0003
     27 C          62.9709   79.7879   10.7447 C.ar    1  UNL1       -0.0000
     28 C          63.2676   81.1957   10.3205 C.ar    1  UNL1       -0.0003
     29 C          63.1150   82.3220   11.2994 C.ar    1  UNL1       -0.0042
@<TRIPOS>BOND
     1     1     2    2
     2     2     3    1
     3     3     4    1
     4     4     5    1
     5     5     6    1
     6     6     7    1
     7     7     8   am
     8     8     9    2
     9     8    10   am
    10    21    10    1
    11    21    22    1
    12    22    23    1
    13    23    24    1
    14    24    25   ar
    15    25    26   ar
    16    26    27   ar
    17    27    28   ar
    18    28    29   ar
    19     7    11    1
    20    11    12    1
    21     4    13    1
    22    13    14    1
    23    14    15   ar
    24    15    16   ar
    25    16    17   ar
    26    17    18   ar
    27    18    19   ar
    28    19     2    1
    29    12     4    1
    30    19    14   ar
    31    23    21    1
    32    29    24   ar
    33    10    20    1
@<TRIPOS>MOLECULE
*****
 29 33 0 0 0
SMALL
GASTEIGER

@<TRIPOS>ATOM
      1 O          60.9334   92.5889    2.9611 O.2     1  UNL1       -0.2911
      2 C          61.0681   93.2170    1.6055 C.2     1  UNL1        0.1795
      3 C          59.8511   93.4377    0.7569 C.3     1  UNL1        0.1092
      4 C          59.9858   94.0658   -0.5986 C.3     1  UNL1        0.1436
      5 C          60.1206   94.6938   -1.9541 C.3     1  UNL1        0.0620
      6 C          58.9036   94.9146   -2.8027 C.3     1  UNL1        0.0985
      7 N          57.5519   94.5073   -2.2958 N.am    1  UNL1       -0.2640
      8 C          56.3348   94.7280   -3.1445 C.2     1  UNL1        0.3039
      9 O          54.9831   94.3207   -2.6376 O.2     1  UNL1       -0.2526
     10 N          56.4695   95.3561   -4.5000 N.am    1  UNL1       -0.2901
     11 C          57.4171   93.8792   -0.9403 C.3     1  UNL1        0.0985
     12 C          58.6341   93.6585   -0.0917 C.3     1  UNL1        0.0620
     13 O          61.3376   94.4731   -1.1055 O.3     1  UNL1       -0.4819
     14 C          62.5546   94.2523   -0.2569 C.ar    1  UNL1        0.1409
     15 C          63.9063   94.6596   -0.7637 C.ar    1  UNL1        0.0370
     16 C          65.1233   94.4389    0.0848 C.ar    1  UNL1        0.0031
     17 C          64.9886   93.8108    1.4404 C.ar    1  UNL1        0.0003
     18 C          63.6369   93.4035    1.9473 C.ar    1  UNL1        0.0059
     19 C          62.4199   93.6243    1.0986 C.ar    1  UNL1        0.0687
     20 H          57.3567   95.6234   -4.8326 H       1  UNL1        0.1509
     21 C          55.2525   95.5768   -5.3486 C.3     1  UNL1        0.0774
     22 C          54.6068   95.6459   -6.7008 C.3     1  UNL1        0.0259
     23 C          53.7903   95.8901   -5.4664 C.3     1  UNL1        0.0420
     24 C          52.4748   96.2120   -4.8217 C.ar    1  UNL1       -0.0208
     25 C          52.4082   96.4835   -3.3480 C.ar    1  UNL1       -0.0042
     26 C          51.0927   96.8054   -2.7034 C.ar    1  UNL1       -0.0003
     27 C          49.8436   96.8558   -3.5324 C.ar    1  UNL1       -0.0000
     28 C          49.9101   96.5843   -5.0061 C.ar    1  UNL1       -0.0003
     29 C          51.2258   96.2624   -5.6508 C.ar    1  UNL1       -0.0042
@<TRIPOS>BOND
     1     1     2    2
     2     2     3    1
     3     3     4    1
     4     4     5    1
     5     5     6    1
     6     6     7    1
     7     7     8   am
     8     8     9    2
     9     8    10   am
    10    21    10    1
    11    21    22    1
    12    22    23    1
    13    23    24    1
    14    24    25   ar
    15    25    26   ar
    16    26    27   ar
    17    27    28   ar
    18    28    29   ar
    19     7    11    1
    20    11    12    1
    21     4    13    1
    22    13    14    1
    23    14    15   ar
    24    15    16   ar
    25    16    17   ar
    26    17    18   ar
    27    18    19   ar
    28    19     2    1
    29    12     4    1
    30    19    14   ar
    31    23    21    1
    32    29    24   ar
    33    10    20    1
@<TRIPOS>MOLECULE
*****
 29 33 0 0 0
SMALL
GASTEIGER

@<TRIPOS>ATOM
      1 O          64.7205   93.3400   11.3522 O.2     1  UNL1       -0.2911
      2 C          65.0172   92.3439   12.4338 C.2     1  UNL1        0.1795
      3 C          64.4093   90.9737   12.3788 C.3     1  UNL1        0.1092
      4 C          64.7060   89.9776   13.4604 C.3     1  UNL1        0.1436
      5 C          65.0027   88.9815   14.5419 C.3     1  UNL1        0.0620
      6 C          64.3948   87.6113   14.4869 C.3     1  UNL1        0.0985
      7 N          63.4903   87.2372   13.3503 N.am    1  UNL1       -0.2640
      8 C          62.8824   85.8669   13.2953 C.2     1  UNL1        0.3039
      9 O          61.9779   85.4928   12.1587 O.2     1  UNL1       -0.2526
     10 N          63.1791   84.8709   14.3769 N.am    1  UNL1       -0.2901
     11 C          63.1936   88.2333   12.2688 C.3     1  UNL1        0.0985
     12 C          63.8014   89.6034   12.3238 C.3     1  UNL1        0.0620
     13 O          65.6105   90.3517   14.5970 O.3     1  UNL1       -0.4819
     14 C          66.2184   91.7220   14.6519 C.ar    1  UNL1        0.1409
     15 C          67.1230   92.0961   15.7885 C.ar    1  UNL1        0.0370
     16 C          67.7308   93.4663   15.8436 C.ar    1  UNL1        0.0031
     17 C          67.4341   94.4624   14.7620 C.ar    1  UNL1        0.0003
     18 C          66.5296   94.0883   13.6254 C.ar    1  UNL1        0.0059
     19 C          65.9217   92.7180   13.5704 C.ar    1  UNL1        0.0687
     20 H          63.7728   85.1165   15.1229 H       1  UNL1        0.1509
     21 C          62.5712   83.5006   14.3219 C.3     1  UNL1        0.0774
     22 C          61.7294   82.4270   14.9452 C.3     1  UNL1        0.0259
     23 C          62.3603   82.2009   13.6033 C.3     1  UNL1        0.0420
     24 C          62.6027   81.3201   12.4137 C.ar    1  UNL1       -0.0208
     25 C          62.3943   79.8386   12.5225 C.ar    1  UNL1       -0.0042
     26 C          62.6368   78.9578   11.3329 C.ar    1  UNL1       -0.0003
     27 C          63.0877   79.5584   10.0344 C.ar    1  UNL1       -0.0000
     28 C          63.2962   81.0398    9.9256 C.ar    1  UNL1       -0.0003
     29 C          63.0537   81.9207   11.1153 C.ar    1  UNL1       -0.0042
@<TRIPOS>BOND
     1     1     2    2
     2     2     3    1
     3     3     4    1
     4     4     5    1
     5     5     6    1
     6     6     7    1
     7     7     8   am
     8     8     9    2
     9     8    10   am
    10    21    10    1
    11    21    22    1
    12    22    23    1
    13    23    24    1
    14    24    25   ar
    15    25    26   ar
    16    26    27   ar
    17    27    28   ar
    18    28    29   ar
    19     7    11    1
    20    11    12    1
    21     4    13    1
    22    13    14    1
    23    14    15   ar
    24    15    16   ar
    25    16    17   ar
    26    17    18   ar
    27    18    19   ar
    28    19     2    1
    29    12     4    1
    30    19    14   ar
    31    23    21    1
    32    29    24   ar
    33    10    20    1
