@<TRIPOS>MOLECULE
*****
 30 33 0 0 0
SMALL
GASTEIGER

@<TRIPOS>ATOM
      1 C          62.5380   88.2194   10.9861 C.3     1  UNL1        0.0219
      2 C          63.1300   87.5381   12.1843 C.3     1  UNL1        0.0820
      3 C          63.2043   86.0409   12.2351 C.3     1  UNL1        0.0671
      4 C          63.7962   85.3595   13.4332 C.ar    1  UNL1        0.0837
      5 C          64.3137   86.1755   14.5805 C.ar    1  UNL1        0.1159
      6 N          64.8395   85.2314   15.6208 N.ar    1  UNL1       -0.1314
      7 N          64.6469   83.8320   15.1165 N.ar    1  UNL1       -0.0576
      8 N          64.0021   83.9111   13.7644 N.ar    1  UNL1       -0.1813
      9 C          64.2394   87.6728   14.5298 C.3     1  UNL1        0.1426
     10 N          63.6475   88.3541   13.3316 N.am    1  UNL1       -0.2715
     11 C          63.5731   89.8515   13.2808 C.2     1  UNL1        0.2514
     12 O          62.9812   90.5328   12.0827 O.2     1  UNL1       -0.2698
     13 C          63.6287   82.7464   12.8961 C.ar    1  UNL1        0.2543
     14 N          63.8945   82.7953   11.4207 N.ar    1  UNL1       -0.2060
     15 C          63.5212   81.6305   10.5523 C.ar    1  UNL1        0.1332
     16 C          62.8821   80.4169   11.1594 C.ar    1  UNL1        0.1784
     17 F          62.5088   79.2522   10.2911 F       1  UNL1       -0.2009
     18 C          62.6163   80.3681   12.6349 C.ar    1  UNL1        0.1332
     19 N          62.9896   81.5327   13.5032 N.ar    1  UNL1       -0.2060
     20 C          64.0907   90.6674   14.4281 C.ar    1  UNL1        0.0809
     21 C          63.3202   90.7273   15.7137 C.ar    1  UNL1        0.0068
     22 C          63.8377   91.5433   16.8610 C.ar    1  UNL1        0.0002
     23 C          65.1258   92.2993   16.7228 C.ar    1  UNL1        0.0061
     24 C          65.8963   92.2395   15.4372 C.ar    1  UNL1        0.0989
     25 C          65.3788   91.4235   14.2899 C.ar    1  UNL1        0.1483
     26 F          66.1493   91.3636   13.0043 F       1  UNL1       -0.2041
     27 C          67.1845   92.9956   15.2988 C.3     1  UNL1        0.4207
     28 F          68.4727   93.7515   15.1606 F       1  UNL1       -0.1658
     29 F          67.8818   91.9594   16.1296 F       1  UNL1       -0.1658
     30 F          66.4872   94.0316   14.4681 F       1  UNL1       -0.1658
@<TRIPOS>BOND
     1     2     1    1
     2     2     3    1
     3     3     4    1
     4     4     5   ar
     5     5     6   ar
     6     6     7   ar
     7     7     8   ar
     8     8    13    1
     9    13    14   ar
    10    14    15   ar
    11    15    16   ar
    12    16    17    1
    13    16    18   ar
    14    18    19   ar
    15     5     9    1
    16     9    10    1
    17    10    11   am
    18    11    12    2
    19    11    20    1
    20    20    21   ar
    21    21    22   ar
    22    22    23   ar
    23    23    24   ar
    24    24    27    1
    25    27    28    1
    26    27    29    1
    27    27    30    1
    28    24    25   ar
    29    25    26    1
    30    10     2    1
    31    25    20   ar
    32     8     4   ar
    33    19    13   ar
@<TRIPOS>MOLECULE
*****
 30 33 0 0 0
SMALL
GASTEIGER

@<TRIPOS>ATOM
      1 C          63.5527   86.8283   13.8935 C.3     1  UNL1        0.0219
      2 C          63.5176   87.9900   12.9451 C.3     1  UNL1        0.0820
      3 C          64.2452   89.2572   13.2842 C.3     1  UNL1        0.0671
      4 C          64.2102   90.4188   12.3359 C.ar    1  UNL1        0.0837
      5 C          63.4476   90.3134   11.0485 C.ar    1  UNL1        0.1159
      6 N          63.5922   91.6144   10.3161 N.ar    1  UNL1       -0.1314
      7 N          64.4442   92.5240   11.1509 N.ar    1  UNL1       -0.0576
      8 N          64.8262   91.7851   12.3992 N.ar    1  UNL1       -0.1813
      9 C          62.7200   89.0463   10.7094 C.3     1  UNL1        0.1426
     10 N          62.7551   87.8846   11.6578 N.am    1  UNL1       -0.2715
     11 C          62.0274   86.6174   11.3187 C.2     1  UNL1        0.2514
     12 O          62.0624   85.4557   12.2670 O.2     1  UNL1       -0.2698
     13 C          65.6750   92.3187   13.5148 C.ar    1  UNL1        0.2543
     14 N          66.9830   92.9861   13.2087 N.ar    1  UNL1       -0.2060
     15 C          67.8319   93.5198   14.3244 C.ar    1  UNL1        0.1332
     16 C          67.3728   93.3861   15.7460 C.ar    1  UNL1        0.1784
     17 F          68.2216   93.9198   16.8616 F       1  UNL1       -0.2009
     18 C          66.0647   92.7187   16.0521 C.ar    1  UNL1        0.1332
     19 N          65.2158   92.1851   14.9365 N.ar    1  UNL1       -0.2060
     20 C          61.2648   86.5119   10.0313 C.ar    1  UNL1        0.0809
     21 C          59.9545   87.2252    9.8752 C.ar    1  UNL1        0.0068
     22 C          59.1919   87.1198    8.5878 C.ar    1  UNL1        0.0002
     23 C          59.7396   86.3010    7.4566 C.ar    1  UNL1        0.0061
     24 C          61.0499   85.5878    7.6127 C.ar    1  UNL1        0.0989
     25 C          61.8125   85.6932    8.9001 C.ar    1  UNL1        0.1483
     26 F          63.1228   84.9799    9.0562 F       1  UNL1       -0.2041
     27 C          61.5977   84.7690    6.4815 C.3     1  UNL1        0.4207
     28 F          62.1453   83.9502    5.3503 F       1  UNL1       -0.1658
     29 F          60.2237   84.2359    6.2022 F       1  UNL1       -0.1658
     30 F          62.9716   85.3021    6.7609 F       1  UNL1       -0.1658
@<TRIPOS>BOND
     1     2     1    1
     2     2     3    1
     3     3     4    1
     4     4     5   ar
     5     5     6   ar
     6     6     7   ar
     7     7     8   ar
     8     8    13    1
     9    13    14   ar
    10    14    15   ar
    11    15    16   ar
    12    16    17    1
    13    16    18   ar
    14    18    19   ar
    15     5     9    1
    16     9    10    1
    17    10    11   am
    18    11    12    2
    19    11    20    1
    20    20    21   ar
    21    21    22   ar
    22    22    23   ar
    23    23    24   ar
    24    24    27    1
    25    27    28    1
    26    27    29    1
    27    27    30    1
    28    24    25   ar
    29    25    26    1
    30    10     2    1
    31    25    20   ar
    32     8     4   ar
    33    19    13   ar
@<TRIPOS>MOLECULE
*****
 30 33 0 0 0
SMALL
GASTEIGER

@<TRIPOS>ATOM
      1 C          61.6271   87.7538   10.7942 C.3     1  UNL1        0.0219
      2 C          62.5630   87.4116   11.9154 C.3     1  UNL1        0.0820
      3 C          62.6414   86.0023   12.4231 C.3     1  UNL1        0.0671
      4 C          63.5772   85.6600   13.5443 C.ar    1  UNL1        0.0837
      5 C          64.4346   86.7270   14.1578 C.ar    1  UNL1        0.1159
      6 N          65.2565   86.0950   15.2419 N.ar    1  UNL1       -0.1314
      7 N          64.9069   84.6374   15.2983 N.ar    1  UNL1       -0.0576
      8 N          63.8691   84.3685   14.2492 N.ar    1  UNL1       -0.1813
      9 C          64.3562   88.1363   13.6501 C.3     1  UNL1        0.1426
     10 N          63.4204   88.4785   12.5289 N.am    1  UNL1       -0.2715
     11 C          63.3420   89.8879   12.0211 C.2     1  UNL1        0.2514
     12 O          62.4062   90.2302   10.8999 O.2     1  UNL1       -0.2698
     13 C          63.2346   83.0413   13.9564 C.ar    1  UNL1        0.2543
     14 N          63.8731   82.1054   12.9734 N.ar    1  UNL1       -0.2060
     15 C          63.2386   80.7780   12.6805 C.ar    1  UNL1        0.1332
     16 C          61.9657   80.3867   13.3707 C.ar    1  UNL1        0.1784
     17 F          61.3312   79.0594   13.0779 F       1  UNL1       -0.2009
     18 C          61.3272   81.3226   14.3538 C.ar    1  UNL1        0.1332
     19 N          61.9616   82.6499   14.6467 N.ar    1  UNL1       -0.2060
     20 C          64.1994   90.9549   12.6346 C.ar    1  UNL1        0.0809
     21 C          64.3368   91.0415   14.1258 C.ar    1  UNL1        0.0068
     22 C          65.1943   92.1084   14.7393 C.ar    1  UNL1        0.0002
     23 C          65.9143   93.0888   13.8616 C.ar    1  UNL1        0.0061
     24 C          65.7769   93.0023   12.3704 C.ar    1  UNL1        0.0989
     25 C          64.9195   91.9353   11.7569 C.ar    1  UNL1        0.1483
     26 F          64.7821   91.8487   10.2658 F       1  UNL1       -0.2041
     27 C          66.4969   93.9826   11.4926 C.3     1  UNL1        0.4207
     28 F          67.2170   94.9629   10.6148 F       1  UNL1       -0.1658
     29 F          67.2036   92.8505   10.8080 F       1  UNL1       -0.1658
     30 F          65.7902   95.1148   12.1773 F       1  UNL1       -0.1658
@<TRIPOS>BOND
     1     2     1    1
     2     2     3    1
     3     3     4    1
     4     4     5   ar
     5     5     6   ar
     6     6     7   ar
     7     7     8   ar
     8     8    13    1
     9    13    14   ar
    10    14    15   ar
    11    15    16   ar
    12    16    17    1
    13    16    18   ar
    14    18    19   ar
    15     5     9    1
    16     9    10    1
    17    10    11   am
    18    11    12    2
    19    11    20    1
    20    20    21   ar
    21    21    22   ar
    22    22    23   ar
    23    23    24   ar
    24    24    27    1
    25    27    28    1
    26    27    29    1
    27    27    30    1
    28    24    25   ar
    29    25    26    1
    30    10     2    1
    31    25    20   ar
    32     8     4   ar
    33    19    13   ar
@<TRIPOS>MOLECULE
*****
 30 33 0 0 0
SMALL
GASTEIGER

@<TRIPOS>ATOM
      1 C          62.8173   89.5830   11.2149 C.3     1  UNL1        0.0219
      2 C          62.0324   88.5660   10.4404 C.3     1  UNL1        0.0820
      3 C          61.2666   88.9809    9.2192 C.3     1  UNL1        0.0671
      4 C          60.4817   87.9640    8.4447 C.ar    1  UNL1        0.0837
      5 C          60.4628   86.5321    8.8914 C.ar    1  UNL1        0.1159
      6 N          59.6055   85.7591    7.9336 N.ar    1  UNL1       -0.1314
      7 N          59.0945   86.7131    6.8950 N.ar    1  UNL1       -0.0576
      8 N          59.6361   88.0758    7.2108 N.ar    1  UNL1       -0.1813
      9 C          61.2287   86.1172   10.1125 C.3     1  UNL1        0.1426
     10 N          62.0135   87.1343   10.8870 N.am    1  UNL1       -0.2715
     11 C          62.7794   86.7194   12.1083 C.2     1  UNL1        0.2514
     12 O          63.5643   87.7363   12.8828 O.2     1  UNL1       -0.2698
     13 C          59.3774   89.3301    6.4300 C.ar    1  UNL1        0.2543
     14 N          57.9743   89.8333    6.2624 N.ar    1  UNL1       -0.2060
     15 C          57.7156   91.0877    5.4815 C.ar    1  UNL1        0.1332
     16 C          58.8599   91.8387    4.8682 C.ar    1  UNL1        0.1784
     17 F          58.6013   93.0930    4.0873 F       1  UNL1       -0.2009
     18 C          60.2631   91.3355    5.0358 C.ar    1  UNL1        0.1332
     19 N          60.5218   90.0812    5.8166 N.ar    1  UNL1       -0.2060
     20 C          62.7605   85.2875   12.5549 C.ar    1  UNL1        0.0809
     21 C          62.4751   84.9529   13.9890 C.ar    1  UNL1        0.0068
     22 C          62.4561   83.5211   14.4357 C.ar    1  UNL1        0.0002
     23 C          62.7226   82.4238   13.4482 C.ar    1  UNL1        0.0061
     24 C          63.0080   82.7584   12.0142 C.ar    1  UNL1        0.0989
     25 C          63.0270   84.1903   11.5675 C.ar    1  UNL1        0.1483
     26 F          63.3124   84.5248   10.1335 F       1  UNL1       -0.2041
     27 C          63.2745   81.6612   11.0266 C.3     1  UNL1        0.4207
     28 F          63.5411   80.5641   10.0391 F       1  UNL1       -0.1658
     29 F          64.3841   82.4720   10.4254 F       1  UNL1       -0.1658
     30 F          62.1650   80.8505   11.6279 F       1  UNL1       -0.1658
@<TRIPOS>BOND
     1     2     1    1
     2     2     3    1
     3     3     4    1
     4     4     5   ar
     5     5     6   ar
     6     6     7   ar
     7     7     8   ar
     8     8    13    1
     9    13    14   ar
    10    14    15   ar
    11    15    16   ar
    12    16    17    1
    13    16    18   ar
    14    18    19   ar
    15     5     9    1
    16     9    10    1
    17    10    11   am
    18    11    12    2
    19    11    20    1
    20    20    21   ar
    21    21    22   ar
    22    22    23   ar
    23    23    24   ar
    24    24    27    1
    25    27    28    1
    26    27    29    1
    27    27    30    1
    28    24    25   ar
    29    25    26    1
    30    10     2    1
    31    25    20   ar
    32     8     4   ar
    33    19    13   ar
@<TRIPOS>MOLECULE
*****
 30 33 0 0 0
SMALL
GASTEIGER

@<TRIPOS>ATOM
      1 C          61.6932   87.7179   10.7843 C.3     1  UNL1        0.0219
      2 C          62.6044   87.3700   11.9240 C.3     1  UNL1        0.0820
      3 C          62.6839   85.9551   12.4156 C.3     1  UNL1        0.0671
      4 C          63.5950   85.6071   13.5552 C.ar    1  UNL1        0.0837
      5 C          64.4266   86.6741   14.2033 C.ar    1  UNL1        0.1159
      6 N          65.2276   86.0358   15.2992 N.ar    1  UNL1       -0.1314
      7 N          64.8910   84.5744   15.3285 N.ar    1  UNL1       -0.0576
      8 N          63.8820   84.3094   14.2506 N.ar    1  UNL1       -0.1813
      9 C          64.3471   88.0890   13.7117 C.3     1  UNL1        0.1426
     10 N          63.4359   88.4369   12.5720 N.am    1  UNL1       -0.2715
     11 C          63.3564   89.8519   12.0804 C.2     1  UNL1        0.2514
     12 O          62.4453   90.1999   10.9408 O.2     1  UNL1       -0.2698
     13 C          63.2678   82.9801   13.9253 C.ar    1  UNL1        0.2543
     14 N          63.9146   82.0830   12.9120 N.ar    1  UNL1       -0.2060
     15 C          63.3004   80.7536   12.5867 C.ar    1  UNL1        0.1332
     16 C          62.0396   80.3215   13.2747 C.ar    1  UNL1        0.1784
     17 F          61.4255   78.9922   12.9494 F       1  UNL1       -0.2009
     18 C          61.3929   81.2187   14.2881 C.ar    1  UNL1        0.1332
     19 N          62.0069   82.5480   14.6134 N.ar    1  UNL1       -0.2060
     20 C          64.1881   90.9189   12.7285 C.ar    1  UNL1        0.0809
     21 C          64.9993   91.8549   11.8824 C.ar    1  UNL1        0.0068
     22 C          65.8309   92.9219   12.5305 C.ar    1  UNL1        0.0002
     23 C          65.8513   93.0528   14.0246 C.ar    1  UNL1        0.0061
     24 C          65.0401   92.1168   14.8707 C.ar    1  UNL1        0.0989
     25 C          64.2085   91.0499   14.2226 C.ar    1  UNL1        0.1483
     26 F          63.3973   90.1139   15.0686 F       1  UNL1       -0.2041
     27 C          65.0605   92.2477   16.3649 C.3     1  UNL1        0.4207
     28 F          65.0807   92.3786   17.8590 F       1  UNL1       -0.1658
     29 F          63.5955   91.9290   16.4126 F       1  UNL1       -0.1658
     30 F          66.5254   92.5664   16.3170 F       1  UNL1       -0.1658
@<TRIPOS>BOND
     1     2     1    1
     2     2     3    1
     3     3     4    1
     4     4     5   ar
     5     5     6   ar
     6     6     7   ar
     7     7     8   ar
     8     8    13    1
     9    13    14   ar
    10    14    15   ar
    11    15    16   ar
    12    16    17    1
    13    16    18   ar
    14    18    19   ar
    15     5     9    1
    16     9    10    1
    17    10    11   am
    18    11    12    2
    19    11    20    1
    20    20    21   ar
    21    21    22   ar
    22    22    23   ar
    23    23    24   ar
    24    24    27    1
    25    27    28    1
    26    27    29    1
    27    27    30    1
    28    24    25   ar
    29    25    26    1
    30    10     2    1
    31    25    20   ar
    32     8     4   ar
    33    19    13   ar
