@<TRIPOS>MOLECULE
*****
 41 44 0 0 0
SMALL
GASTEIGER

@<TRIPOS>ATOM
      1 C          62.7424   84.7480   11.7937 C.ar    1  UNL1       -0.0041
      2 C          61.8143   85.5941   10.9734 C.ar    1  UNL1        0.0028
      3 C          61.7722   87.0790   11.1812 C.ar    1  UNL1        0.0382
      4 C          60.9657   88.1615   10.5272 C.ar    1  UNL1        0.1216
      5 N          61.3532   89.4694   11.1511 N.ar    1  UNL1       -0.1675
      6 N          62.3992   89.1952   12.1907 N.ar    1  UNL1       -0.2487
      7 C          62.6582   87.7179   12.2093 C.ar    1  UNL1        0.0794
      8 C          63.5862   86.8718   13.0296 C.ar    1  UNL1        0.0145
      9 C          63.6283   85.3869   12.8217 C.ar    1  UNL1       -0.0204
     10 C          64.5565   84.5408   13.6421 C.3     1  UNL1        0.0311
     11 C          64.0451   83.6130    9.3412 C.3     1  UNL1        0.0310
     12 C          63.4359   82.6955   10.3596 C.ar    1  UNL1       -0.0219
     13 C          63.4780   81.2106   10.1518 C.ar    1  UNL1       -0.0004
     14 C          62.8688   80.2932   11.1703 C.ar    1  UNL1        0.0711
     15 C          62.2175   80.8607   12.3965 C.ar    1  UNL1        0.0038
     16 C          62.1754   82.3456   12.6043 C.ar    1  UNL1       -0.0004
     17 C          62.7846   83.2630   11.5859 C.ar    1  UNL1       -0.0043
     18 C          62.9109   78.8083   10.9624 C.3     1  UNL1        0.4186
     19 F          62.9531   77.3234   10.7544 F       1  UNL1       -0.1659
     20 F          63.1313   79.0201    9.4939 F       1  UNL1       -0.1659
     21 F          62.6905   78.5963   12.4309 F       1  UNL1       -0.1659
     22 C          63.0687   90.2187   13.0592 C.3     1  UNL1        0.1273
     23 C          63.9371   91.2742   12.4412 C.ar    1  UNL1       -0.0001
     24 C          63.7756   91.6242   10.9916 C.ar    1  UNL1       -0.0023
     25 C          64.6440   92.6796   10.3736 C.ar    1  UNL1        0.0042
     26 C          65.6740   93.3851   11.2053 C.ar    1  UNL1        0.0533
     27 C          65.8354   93.0351   12.6549 C.ar    1  UNL1        0.0042
     28 C          64.9671   91.9796   13.2729 C.ar    1  UNL1       -0.0023
     29 C          66.5424   94.4406   10.5874 C.2     1  UNL1        0.2459
     30 O          66.9602   95.6346   11.3933 O.2     1  UNL1       -0.2701
     31 N          66.9930   94.3019    9.1634 N.am    1  UNL1       -0.3005
     32 H          66.7189   93.5182    8.6344 H       1  UNL1        0.1498
     33 C          67.8614   95.3574    8.5454 C.3     1  UNL1        0.0956
     34 C          67.2614   96.6604    8.1070 C.3     1  UNL1        0.0629
     35 C          65.7845   96.7623    7.8654 C.2     1  UNL1        0.0520
     36 O          65.2529   96.7707    6.4628 O.co2   1  UNL1       -0.5491
     37 O          64.8392   96.8558    9.0263 O.co2   1  UNL1       -0.5491
     38 C          62.8698   90.1868   14.5456 C.3     1  UNL1        0.0289
     39 C          63.6883   89.2576   15.3920 C.3     1  UNL1        0.0023
     40 C          65.0287   88.7880   14.9093 C.3     1  UNL1        0.0001
     41 C          63.1666   88.7978   16.7211 C.3     1  UNL1        0.0001
@<TRIPOS>UNITY_ATOM_ATTR
36 1
charge -1
@<TRIPOS>BOND
     1    11    12    1
     2    12    13   ar
     3    13    14   ar
     4    14    18    1
     5    18    19    1
     6    18    20    1
     7    18    21    1
     8    14    15   ar
     9    15    16   ar
    10    16    17   ar
    11    17     1    1
    12     1     2   ar
    13     2     3   ar
    14     3     4   ar
    15     4     5   ar
    16     5     6   ar
    17     6    22    1
    18    22    38    1
    19    38    39    1
    20    39    40    1
    21    39    41    1
    22    22    23    1
    23    23    24   ar
    24    24    25   ar
    25    25    26   ar
    26    26    29    1
    27    29    30    2
    28    29    31   am
    29    31    33    1
    30    33    34    1
    31    34    35    1
    32    35    36   ar
    33    35    37   ar
    34    26    27   ar
    35    27    28   ar
    36     6     7   ar
    37     7     8   ar
    38     8     9   ar
    39     9    10    1
    40    17    12   ar
    41     9     1   ar
    42     7     3   ar
    43    28    23   ar
    44    31    32    1
@<TRIPOS>MOLECULE
*****
 41 44 0 0 0
SMALL
GASTEIGER

@<TRIPOS>ATOM
      1 C          65.0273   91.1565   12.9177 C.ar    1  UNL1       -0.0041
      2 C          64.6410   91.8710   11.6566 C.ar    1  UNL1        0.0028
      3 C          63.5998   91.2834   10.7506 C.ar    1  UNL1        0.0382
      4 C          63.0184   91.7554    9.4509 C.ar    1  UNL1        0.1216
      5 N          62.0043   90.7452    9.0028 N.ar    1  UNL1       -0.1675
      6 N          61.9589   89.6488   10.0255 N.ar    1  UNL1       -0.2487
      7 C          62.9450   89.9814   11.1057 C.ar    1  UNL1        0.0794
      8 C          63.3314   89.2670   12.3668 C.ar    1  UNL1        0.0145
      9 C          64.3725   89.8546   13.2728 C.ar    1  UNL1       -0.0204
     10 C          64.7588   89.1401   14.5339 C.3     1  UNL1        0.0311
     11 C          67.8124   91.6166   11.9022 C.3     1  UNL1        0.0310
     12 C          67.4610   91.9741   13.3160 C.ar    1  UNL1       -0.0219
     13 C          68.5021   92.5617   14.2220 C.ar    1  UNL1       -0.0004
     14 C          68.1507   92.9192   15.6357 C.ar    1  UNL1        0.0711
     15 C          66.7581   92.6891   16.1435 C.ar    1  UNL1        0.0038
     16 C          65.7170   92.1015   15.2375 C.ar    1  UNL1       -0.0004
     17 C          66.0685   91.7441   13.8237 C.ar    1  UNL1       -0.0043
     18 C          69.1918   93.5067   16.5417 C.3     1  UNL1        0.4186
     19 F          70.2330   94.0942   17.4476 F       1  UNL1       -0.1659
     20 F          69.6331   92.1266   16.9296 F       1  UNL1       -0.1659
     21 F          68.7506   94.8869   16.1538 F       1  UNL1       -0.1659
     22 C          61.0815   88.4332    9.9766 C.3     1  UNL1        0.1273
     23 C          61.6114   87.1068   10.4347 C.ar    1  UNL1       -0.0001
     24 C          61.4278   86.6777   11.8603 C.ar    1  UNL1       -0.0023
     25 C          61.9577   85.3514   12.3185 C.ar    1  UNL1        0.0042
     26 C          62.6712   84.4540   11.3510 C.ar    1  UNL1        0.0533
     27 C          62.8547   84.8831    9.9255 C.ar    1  UNL1        0.0042
     28 C          62.3248   86.2094    9.4673 C.ar    1  UNL1       -0.0023
     29 C          63.2011   83.1276   11.8092 C.2     1  UNL1        0.2459
     30 O          64.4984   83.0567   12.5587 O.2     1  UNL1       -0.2701
     31 N          62.4337   81.8722   11.5178 N.am    1  UNL1       -0.3005
     32 H          61.5822   81.9187   11.0258 H       1  UNL1        0.1498
     33 C          62.9636   80.5458   11.9759 C.3     1  UNL1        0.0956
     34 C          62.5003   79.9622   13.2778 C.3     1  UNL1        0.0629
     35 C          61.6591   80.7825   14.2103 C.2     1  UNL1        0.0520
     36 O          62.2603   81.9544   14.9281 O.co2   1  UNL1       -0.5491
     37 O          60.2168   80.4308   14.4250 O.co2   1  UNL1       -0.5491
     38 C          59.6741   88.5439    9.4694 C.3     1  UNL1        0.0289
     39 C          59.3550   88.1644    8.0539 C.3     1  UNL1        0.0023
     40 C          59.0086   86.7441    7.7181 C.3     1  UNL1        0.0001
     41 C          59.3823   89.2050    6.9738 C.3     1  UNL1        0.0001
@<TRIPOS>UNITY_ATOM_ATTR
36 1
charge -1
@<TRIPOS>BOND
     1    11    12    1
     2    12    13   ar
     3    13    14   ar
     4    14    18    1
     5    18    19    1
     6    18    20    1
     7    18    21    1
     8    14    15   ar
     9    15    16   ar
    10    16    17   ar
    11    17     1    1
    12     1     2   ar
    13     2     3   ar
    14     3     4   ar
    15     4     5   ar
    16     5     6   ar
    17     6    22    1
    18    22    38    1
    19    38    39    1
    20    39    40    1
    21    39    41    1
    22    22    23    1
    23    23    24   ar
    24    24    25   ar
    25    25    26   ar
    26    26    29    1
    27    29    30    2
    28    29    31   am
    29    31    33    1
    30    33    34    1
    31    34    35    1
    32    35    36   ar
    33    35    37   ar
    34    26    27   ar
    35    27    28   ar
    36     6     7   ar
    37     7     8   ar
    38     8     9   ar
    39     9    10    1
    40    17    12   ar
    41     9     1   ar
    42     7     3   ar
    43    28    23   ar
    44    31    32    1
@<TRIPOS>MOLECULE
*****
 41 44 0 0 0
SMALL
GASTEIGER

@<TRIPOS>ATOM
      1 C          63.1252   84.0816   12.1523 C.ar    1  UNL1       -0.0041
      2 C          63.8332   84.5678   13.3822 C.ar    1  UNL1        0.0028
      3 C          63.8998   86.0368   13.6778 C.ar    1  UNL1        0.0382
      4 C          64.5233   86.8066   14.8041 C.ar    1  UNL1        0.1216
      5 N          64.2673   88.2653   14.5661 N.ar    1  UNL1       -0.1675
      6 N          63.4855   88.3970   13.2927 N.ar    1  UNL1       -0.2487
      7 C          63.2584   87.0197   12.7437 C.ar    1  UNL1        0.0794
      8 C          62.5504   86.5335   11.5139 C.ar    1  UNL1        0.0145
      9 C          62.4838   85.0645   11.2183 C.ar    1  UNL1       -0.0204
     10 C          61.7758   84.5783    9.9884 C.3     1  UNL1        0.0311
     11 C          62.0601   82.1829   14.2164 C.3     1  UNL1        0.0310
     12 C          62.5261   81.6631   12.8886 C.ar    1  UNL1       -0.0219
     13 C          62.4595   80.1941   12.5929 C.ar    1  UNL1       -0.0004
     14 C          62.9254   79.6744   11.2652 C.ar    1  UNL1        0.0711
     15 C          63.4580   80.6238   10.2332 C.ar    1  UNL1        0.0038
     16 C          63.5245   82.0928   10.5289 C.ar    1  UNL1       -0.0004
     17 C          63.0586   82.6125   11.8566 C.ar    1  UNL1       -0.0043
     18 C          62.8588   78.2054   10.9696 C.3     1  UNL1        0.4186
     19 F          62.7922   76.7363   10.6739 F       1  UNL1       -0.1659
     20 F          62.9202   78.4983    9.4998 F       1  UNL1       -0.1659
     21 F          62.7974   77.9123   12.4394 F       1  UNL1       -0.1659
     22 C          63.0137   89.6806   12.6765 C.3     1  UNL1        0.1273
     23 C          62.1221   89.6505   11.4707 C.ar    1  UNL1       -0.0001
     24 C          60.6318   89.6803   11.6390 C.ar    1  UNL1       -0.0023
     25 C          59.7402   89.6501   10.4332 C.ar    1  UNL1        0.0042
     26 C          60.3387   89.5901    9.0590 C.ar    1  UNL1        0.0533
     27 C          61.8289   89.5602    8.8908 C.ar    1  UNL1        0.0042
     28 C          62.7206   89.5904   10.0966 C.ar    1  UNL1       -0.0023
     29 C          59.4471   89.5599    7.8532 C.2     1  UNL1        0.2459
     30 O          58.5296   88.3949    7.6278 O.2     1  UNL1       -0.2701
     31 N          59.4729   90.6948    6.8727 N.am    1  UNL1       -0.3005
     32 H          60.0751   91.4595    7.0206 H       1  UNL1        0.1498
     33 C          58.5812   90.6647    5.6669 C.3     1  UNL1        0.0956
     34 C          58.5331   91.8431    4.7400 C.3     1  UNL1        0.0629
     35 C          59.7890   92.3301    4.0803 C.2     1  UNL1        0.0520
     36 O          59.7351   93.4866    3.1265 O.co2   1  UNL1       -0.5491
     37 O          61.0988   91.6608    4.3743 O.co2   1  UNL1       -0.5491
     38 C          63.4336   90.9945   13.2662 C.3     1  UNL1        0.0289
     39 C          64.7803   91.5676   12.9379 C.3     1  UNL1        0.0023
     40 C          65.8850   91.5151   13.9513 C.3     1  UNL1        0.0001
     41 C          65.0224   92.1933   11.5963 C.3     1  UNL1        0.0001
@<TRIPOS>UNITY_ATOM_ATTR
36 1
charge -1
@<TRIPOS>BOND
     1    11    12    1
     2    12    13   ar
     3    13    14   ar
     4    14    18    1
     5    18    19    1
     6    18    20    1
     7    18    21    1
     8    14    15   ar
     9    15    16   ar
    10    16    17   ar
    11    17     1    1
    12     1     2   ar
    13     2     3   ar
    14     3     4   ar
    15     4     5   ar
    16     5     6   ar
    17     6    22    1
    18    22    38    1
    19    38    39    1
    20    39    40    1
    21    39    41    1
    22    22    23    1
    23    23    24   ar
    24    24    25   ar
    25    25    26   ar
    26    26    29    1
    27    29    30    2
    28    29    31   am
    29    31    33    1
    30    33    34    1
    31    34    35    1
    32    35    36   ar
    33    35    37   ar
    34    26    27   ar
    35    27    28   ar
    36     6     7   ar
    37     7     8   ar
    38     8     9   ar
    39     9    10    1
    40    17    12   ar
    41     9     1   ar
    42     7     3   ar
    43    28    23   ar
    44    31    32    1
@<TRIPOS>MOLECULE
*****
 41 44 0 0 0
SMALL
GASTEIGER

@<TRIPOS>ATOM
      1 C          61.2756   92.2134    3.0247 C.ar    1  UNL1       -0.0041
      2 C          59.8471   92.4591    3.4113 C.ar    1  UNL1        0.0028
      3 C          59.2398   91.7045    4.5566 C.ar    1  UNL1        0.0382
      4 C          57.8683   91.7342    5.1633 C.ar    1  UNL1        0.1216
      5 N          57.8416   90.7523    6.2969 N.ar    1  UNL1       -0.1675
      6 N          59.1966   90.1157    6.3908 N.ar    1  UNL1       -0.2487
      7 C          60.0607   90.7043    5.3152 C.ar    1  UNL1        0.0794
      8 C          61.4891   90.4586    4.9286 C.ar    1  UNL1        0.0145
      9 C          62.0964   91.2132    3.7833 C.ar    1  UNL1       -0.0204
     10 C          63.5248   90.9675    3.3967 C.3     1  UNL1        0.0311
     11 C          60.4720   91.5665    0.2077 C.3     1  UNL1        0.0310
     12 C          61.4812   92.6446    0.4709 C.ar    1  UNL1       -0.0219
     13 C          62.0886   93.3992   -0.6744 C.ar    1  UNL1       -0.0004
     14 C          63.0978   94.4773   -0.4111 C.ar    1  UNL1        0.0711
     15 C          63.4996   94.8007    0.9974 C.ar    1  UNL1        0.0038
     16 C          62.8922   94.0461    2.1427 C.ar    1  UNL1       -0.0004
     17 C          61.8830   92.9681    1.8794 C.ar    1  UNL1       -0.0043
     18 C          63.7052   95.2318   -1.5564 C.3     1  UNL1        0.4186
     19 F          64.3126   95.9863   -2.7017 F       1  UNL1       -0.1659
     20 F          65.0691   95.0309   -0.9654 F       1  UNL1       -0.1659
     21 F          62.3413   95.4327   -2.1474 F       1  UNL1       -0.1659
     22 C          59.6141   89.0736    7.3856 C.3     1  UNL1        0.1273
     23 C          60.4031   89.4683    8.5987 C.ar    1  UNL1       -0.0001
     24 C          61.8829   89.2272    8.6421 C.ar    1  UNL1       -0.0023
     25 C          62.6719   89.6220    9.8552 C.ar    1  UNL1        0.0042
     26 C          61.9810   90.2578   11.0251 C.ar    1  UNL1        0.0533
     27 C          60.5013   90.4989   10.9817 C.ar    1  UNL1        0.0042
     28 C          59.7122   90.1042    9.7686 C.ar    1  UNL1       -0.0023
     29 C          62.7700   90.6525   12.2382 C.2     1  UNL1        0.2459
     30 O          63.8931   91.6390   12.1142 O.2     1  UNL1       -0.2701
     31 N          62.4359   90.0607   13.5754 N.am    1  UNL1       -0.3005
     32 H          61.6988   89.4132   13.6568 H       1  UNL1        0.1498
     33 C          63.2249   90.4554   14.7885 C.3     1  UNL1        0.0956
     34 C          63.4657   89.4589   15.8835 C.3     1  UNL1        0.0629
     35 C          63.6204   88.0040   15.5528 C.2     1  UNL1        0.0520
     36 O          64.1417   87.5918   14.2081 O.co2   1  UNL1       -0.5491
     37 O          63.2538   86.9613   16.5669 O.co2   1  UNL1       -0.5491
     38 C          59.2426   87.6368    7.1673 C.3     1  UNL1        0.0289
     39 C          60.0296   86.5489    7.8358 C.3     1  UNL1        0.0023
     40 C          60.0810   86.4717    9.3329 C.3     1  UNL1        0.0001
     41 C          60.7655   85.5379    7.0071 C.3     1  UNL1        0.0001
@<TRIPOS>UNITY_ATOM_ATTR
36 1
charge -1
@<TRIPOS>BOND
     1    11    12    1
     2    12    13   ar
     3    13    14   ar
     4    14    18    1
     5    18    19    1
     6    18    20    1
     7    18    21    1
     8    14    15   ar
     9    15    16   ar
    10    16    17   ar
    11    17     1    1
    12     1     2   ar
    13     2     3   ar
    14     3     4   ar
    15     4     5   ar
    16     5     6   ar
    17     6    22    1
    18    22    38    1
    19    38    39    1
    20    39    40    1
    21    39    41    1
    22    22    23    1
    23    23    24   ar
    24    24    25   ar
    25    25    26   ar
    26    26    29    1
    27    29    30    2
    28    29    31   am
    29    31    33    1
    30    33    34    1
    31    34    35    1
    32    35    36   ar
    33    35    37   ar
    34    26    27   ar
    35    27    28   ar
    36     6     7   ar
    37     7     8   ar
    38     8     9   ar
    39     9    10    1
    40    17    12   ar
    41     9     1   ar
    42     7     3   ar
    43    28    23   ar
    44    31    32    1
@<TRIPOS>MOLECULE
*****
 41 44 0 0 0
SMALL
GASTEIGER

@<TRIPOS>ATOM
      1 C          61.2835   92.2768    3.0176 C.ar    1  UNL1       -0.0041
      2 C          59.8573   92.5220    3.4125 C.ar    1  UNL1        0.0028
      3 C          59.2453   91.7398    4.5366 C.ar    1  UNL1        0.0382
      4 C          57.8746   91.7625    5.1453 C.ar    1  UNL1        0.1216
      5 N          57.8415   90.7490    6.2507 N.ar    1  UNL1       -0.1675
      6 N          59.1918   90.1000    6.3251 N.ar    1  UNL1       -0.2487
      7 C          60.0594   90.7124    5.2657 C.ar    1  UNL1        0.0794
      8 C          61.4855   90.4672    4.8707 C.ar    1  UNL1        0.0145
      9 C          62.0975   91.2494    3.7467 C.ar    1  UNL1       -0.0204
     10 C          63.5237   91.0041    3.3517 C.3     1  UNL1        0.0311
     11 C          60.5803   91.6200    0.1761 C.3     1  UNL1        0.0310
     12 C          61.5440   92.7307    0.4727 C.ar    1  UNL1       -0.0219
     13 C          62.1560   93.5129   -0.6514 C.ar    1  UNL1       -0.0004
     14 C          63.1196   94.6235   -0.3547 C.ar    1  UNL1        0.0711
     15 C          63.4712   94.9519    1.0661 C.ar    1  UNL1        0.0038
     16 C          62.8592   94.1696    2.1901 C.ar    1  UNL1       -0.0004
     17 C          61.8956   93.0590    1.8934 C.ar    1  UNL1       -0.0043
     18 C          63.7316   95.4057   -1.4788 C.3     1  UNL1        0.4186
     19 F          64.3435   96.1879   -2.6029 F       1  UNL1       -0.1659
     20 F          62.3623   95.7747   -1.9674 F       1  UNL1       -0.1659
     21 F          65.1009   95.0367   -0.9901 F       1  UNL1       -0.1659
     22 C          59.6024   89.0271    7.2895 C.3     1  UNL1        0.1273
     23 C          60.3643   89.3859    8.5308 C.ar    1  UNL1       -0.0001
     24 C          59.6807   90.1242    9.6433 C.ar    1  UNL1       -0.0023
     25 C          60.4426   90.4831   10.8845 C.ar    1  UNL1        0.0042
     26 C          61.8881   90.1036   11.0134 C.ar    1  UNL1        0.0533
     27 C          62.5717   89.3653    9.9010 C.ar    1  UNL1        0.0042
     28 C          61.8098   89.0064    8.6596 C.ar    1  UNL1       -0.0023
     29 C          62.6500   90.4624   12.2546 C.2     1  UNL1        0.2459
     30 O          62.1275   90.0536   13.5999 O.2     1  UNL1       -0.2701
     31 N          63.9345   91.2301   12.1507 N.am    1  UNL1       -0.3005
     32 H          64.2775   91.4985   11.2677 H       1  UNL1        0.1498
     33 C          64.6963   91.5890   13.3919 C.3     1  UNL1        0.0956
     34 C          65.9030   92.4754   13.3014 C.3     1  UNL1        0.0629
     35 C          66.2372   93.1576   12.0079 C.2     1  UNL1        0.0520
     36 O          66.2876   92.3669   10.7342 O.co2   1  UNL1       -0.5491
     37 O          66.5208   94.6304   11.9882 O.co2   1  UNL1       -0.5491
     38 C          59.2511   87.5953    7.0127 C.3     1  UNL1        0.0289
     39 C          59.9697   86.4939    7.7341 C.3     1  UNL1        0.0023
     40 C          59.9092   86.4131    9.2307 C.3     1  UNL1        0.0001
     41 C          60.7490   85.4730    6.9589 C.3     1  UNL1        0.0001
@<TRIPOS>UNITY_ATOM_ATTR
36 1
charge -1
@<TRIPOS>BOND
     1    11    12    1
     2    12    13   ar
     3    13    14   ar
     4    14    18    1
     5    18    19    1
     6    18    20    1
     7    18    21    1
     8    14    15   ar
     9    15    16   ar
    10    16    17   ar
    11    17     1    1
    12     1     2   ar
    13     2     3   ar
    14     3     4   ar
    15     4     5   ar
    16     5     6   ar
    17     6    22    1
    18    22    38    1
    19    38    39    1
    20    39    40    1
    21    39    41    1
    22    22    23    1
    23    23    24   ar
    24    24    25   ar
    25    25    26   ar
    26    26    29    1
    27    29    30    2
    28    29    31   am
    29    31    33    1
    30    33    34    1
    31    34    35    1
    32    35    36   ar
    33    35    37   ar
    34    26    27   ar
    35    27    28   ar
    36     6     7   ar
    37     7     8   ar
    38     8     9   ar
    39     9    10    1
    40    17    12   ar
    41     9     1   ar
    42     7     3   ar
    43    28    23   ar
    44    31    32    1
