@<TRIPOS>MOLECULE
*****
 34 38 0 0 0
SMALL
GASTEIGER

@<TRIPOS>ATOM
      1 C          62.9659   86.2409   12.5861 C.2     1  UNL1        0.2529
      2 O          63.5952   87.1268   13.6201 O.2     1  UNL1       -0.2698
      3 N          62.1315   86.8396   11.4929 N.am    1  UNL1       -0.2722
      4 C          61.5022   85.9537   10.4589 C.3     1  UNL1        0.1257
      5 C          60.6677   86.5525    9.3656 C.3     1  UNL1        0.1637
      6 O          60.4625   88.0372    9.3064 O.3     1  UNL1       -0.3502
      7 C          61.0917   88.9231   10.3404 C.3     1  UNL1        0.1622
      8 C          61.9262   88.3244   11.4336 C.3     1  UNL1        0.1096
      9 C          63.6002   82.4943   11.4412 C.ar    1  UNL1        0.1662
     10 C          63.5817   81.7868   12.7637 C.ar    1  UNL1        0.0408
     11 C          63.3579   82.5639   14.0270 C.ar    1  UNL1        0.0243
     12 C          63.1526   84.0486   13.9678 C.ar    1  UNL1        0.1096
     13 C          63.1712   84.7561   12.6453 C.ar    1  UNL1        0.1033
     14 C          63.3950   83.9790   11.3820 C.ar    1  UNL1        0.1796
     15 F          63.4135   84.6866   10.0595 F       1  UNL1       -0.2008
     16 N          62.9289   84.8258   15.2311 N.ar    1  UNL1       -0.1476
     17 N          63.9904   85.4872   16.0592 N.ar    1  UNL1       -0.1447
     18 C          63.3219   86.1482   17.2280 C.ar    1  UNL1        0.1446
     19 C          61.8471   85.8953   17.1223 C.ar    1  UNL1        0.1446
     20 N          61.6042   85.0780   15.8882 N.ar    1  UNL1       -0.1447
     21 C          63.1559   80.3879    9.9868 C.3     1  UNL1        0.2526
     22 O          63.8240   81.7171   10.1779 O.3     1  UNL1       -0.4692
     23 C          62.5554   89.2103   12.4676 C.3     1  UNL1        0.0488
     24 C          63.4864   90.3090   12.0478 C.ar    1  UNL1       -0.0189
     25 C          63.3732   90.9045   10.6758 C.ar    1  UNL1       -0.0041
     26 C          64.3042   92.0032   10.2559 C.ar    1  UNL1        0.0013
     27 C          65.3483   92.5063   11.2080 C.ar    1  UNL1        0.0209
     28 C          65.4615   91.9107   12.5802 C.ar    1  UNL1        0.1026
     29 C          64.5305   90.8121   13.0000 C.ar    1  UNL1        0.0167
     30 N          66.5056   92.4138   13.5323 N.ar    1  UNL1       -0.1478
     31 N          66.2790   93.3734   14.6628 N.ar    1  UNL1       -0.1447
     32 C          67.5930   93.5983   15.3504 C.ar    1  UNL1        0.1446
     33 C          68.6317   92.7778   14.6449 C.ar    1  UNL1        0.1446
     34 N          67.9597   92.0457   13.5213 N.ar    1  UNL1       -0.1447
@<TRIPOS>BOND
     1    21    22    1
     2    22     9    1
     3     9    10   ar
     4    10    11   ar
     5    11    12   ar
     6    12    16    1
     7    16    17   ar
     8    17    18   ar
     9    18    19   ar
    10    19    20   ar
    11    12    13   ar
    12    13     1    1
    13     1     2    2
    14     1     3   am
    15     3     4    1
    16     4     5    1
    17     5     6    1
    18     6     7    1
    19     7     8    1
    20     8    23    1
    21    23    24    1
    22    24    25   ar
    23    25    26   ar
    24    26    27   ar
    25    27    28   ar
    26    28    30    1
    27    30    31   ar
    28    31    32   ar
    29    32    33   ar
    30    33    34   ar
    31    28    29   ar
    32    13    14   ar
    33    14    15    1
    34    14     9   ar
    35    20    16   ar
    36     8     3    1
    37    29    24   ar
    38    34    30   ar
@<TRIPOS>MOLECULE
*****
 34 38 0 0 0
SMALL
GASTEIGER

@<TRIPOS>ATOM
      1 C          62.7876   87.3052   11.8658 C.2     1  UNL1        0.2529
      2 O          63.7539   87.7734   12.9132 O.2     1  UNL1       -0.2698
      3 N          61.6763   88.2058   11.4144 N.am    1  UNL1       -0.2722
      4 C          60.7100   87.7376   10.3670 C.3     1  UNL1        0.1257
      5 C          59.5987   88.6383    9.9155 C.3     1  UNL1        0.1637
      6 O          59.4537   90.0072   10.5115 O.3     1  UNL1       -0.3502
      7 C          60.4200   90.4754   11.5589 C.3     1  UNL1        0.1622
      8 C          61.5313   89.5748   12.0103 C.3     1  UNL1        0.1096
      9 C          63.0543   84.3916    9.1844 C.ar    1  UNL1        0.1662
     10 C          63.2227   83.1986   10.0779 C.ar    1  UNL1        0.0408
     11 C          63.2461   83.3745   11.5674 C.ar    1  UNL1        0.0243
     12 C          63.1011   84.7433   12.1633 C.ar    1  UNL1        0.1096
     13 C          62.9326   85.9363   11.2699 C.ar    1  UNL1        0.1033
     14 C          62.9093   85.7605    9.7804 C.ar    1  UNL1        0.1796
     15 F          62.7408   86.9535    8.8869 F       1  UNL1       -0.2008
     16 N          63.1244   84.9192   13.6528 N.ar    1  UNL1       -0.1476
     17 N          64.3095   85.3349   14.4731 N.ar    1  UNL1       -0.1447
     18 C          63.8843   85.3828   15.9108 C.ar    1  UNL1        0.1446
     19 C          62.4365   84.9967   15.9791 C.ar    1  UNL1        0.1446
     20 N          61.9669   84.7102   14.5836 N.ar    1  UNL1       -0.1447
     21 C          61.9454   84.8556    6.8811 C.3     1  UNL1        0.2526
     22 O          63.0309   84.2158    7.6949 O.3     1  UNL1       -0.4692
     23 C          62.4976   90.0430   13.0577 C.3     1  UNL1        0.0488
     24 C          63.6715   90.8919   12.6692 C.ar    1  UNL1       -0.0189
     25 C          63.8159   91.3701   11.2549 C.ar    1  UNL1       -0.0041
     26 C          64.9899   92.2191   10.8663 C.ar    1  UNL1        0.0013
     27 C          66.0196   92.5899   11.8922 C.ar    1  UNL1        0.0209
     28 C          65.8751   92.1117   13.3066 C.ar    1  UNL1        0.1026
     29 C          64.7012   91.2627   13.6951 C.ar    1  UNL1        0.0167
     30 N          66.9048   92.4825   14.3325 N.ar    1  UNL1       -0.1478
     31 N          67.6402   91.5299   15.2279 N.ar    1  UNL1       -0.1447
     32 C          68.5697   92.3296   16.0918 C.ar    1  UNL1        0.1446
     33 C          68.4088   93.7765   15.7304 C.ar    1  UNL1        0.1446
     34 N          67.3798   93.8710   14.6430 N.ar    1  UNL1       -0.1447
@<TRIPOS>BOND
     1    21    22    1
     2    22     9    1
     3     9    10   ar
     4    10    11   ar
     5    11    12   ar
     6    12    16    1
     7    16    17   ar
     8    17    18   ar
     9    18    19   ar
    10    19    20   ar
    11    12    13   ar
    12    13     1    1
    13     1     2    2
    14     1     3   am
    15     3     4    1
    16     4     5    1
    17     5     6    1
    18     6     7    1
    19     7     8    1
    20     8    23    1
    21    23    24    1
    22    24    25   ar
    23    25    26   ar
    24    26    27   ar
    25    27    28   ar
    26    28    30    1
    27    30    31   ar
    28    31    32   ar
    29    32    33   ar
    30    33    34   ar
    31    28    29   ar
    32    13    14   ar
    33    14    15    1
    34    14     9   ar
    35    20    16   ar
    36     8     3    1
    37    29    24   ar
    38    34    30   ar
@<TRIPOS>MOLECULE
*****
 34 38 0 0 0
SMALL
GASTEIGER

@<TRIPOS>ATOM
      1 C          63.4017   87.9749   13.1995 C.2     1  UNL1        0.2529
      2 O          63.6360   89.0880   12.2217 O.2     1  UNL1       -0.2698
      3 N          63.3394   88.2684   14.6692 N.am    1  UNL1       -0.2722
      4 C          63.1051   87.1553   15.6470 C.3     1  UNL1        0.1257
      5 C          63.0429   87.4488   17.1167 C.3     1  UNL1        0.1637
      6 O          63.2150   88.8553   17.6086 O.3     1  UNL1       -0.3502
      7 C          63.4493   89.9684   16.6308 C.3     1  UNL1        0.1622
      8 C          63.5116   89.6750   15.1611 C.3     1  UNL1        0.1096
      9 C          63.8252   84.0438   12.8567 C.ar    1  UNL1        0.1662
     10 C          62.8854   83.7552   11.7239 C.ar    1  UNL1        0.0408
     11 C          62.1177   84.8731   11.0829 C.ar    1  UNL1        0.0243
     12 C          62.2898   86.2797   11.5747 C.ar    1  UNL1        0.1096
     13 C          63.2296   86.5683   12.7076 C.ar    1  UNL1        0.1033
     14 C          63.9973   85.4504   13.3486 C.ar    1  UNL1        0.1796
     15 F          64.9371   85.7391   14.4815 F       1  UNL1       -0.2008
     16 N          61.5221   87.3976   10.9337 N.ar    1  UNL1       -0.1476
     17 N          61.7880   87.9872    9.5804 N.ar    1  UNL1       -0.1447
     18 C          60.7839   89.0762    9.3438 C.ar    1  UNL1        0.1446
     19 C          59.8974   89.1596   10.5509 C.ar    1  UNL1        0.1446
     20 N          60.3536   88.1221   11.5335 N.ar    1  UNL1       -0.1447
     21 C          64.0304   81.5354   13.5014 C.3     1  UNL1        0.2526
     22 O          64.5929   82.9259   13.4977 O.3     1  UNL1       -0.4692
     23 C          63.7459   90.7880   14.1833 C.3     1  UNL1        0.0488
     24 C          65.1333   91.3147   13.9648 C.ar    1  UNL1       -0.0189
     25 C          66.1854   91.1149   15.0150 C.ar    1  UNL1       -0.0041
     26 C          67.5729   91.6415   14.7965 C.ar    1  UNL1        0.0013
     27 C          67.9081   92.3679   13.5277 C.ar    1  UNL1        0.0209
     28 C          66.8559   92.5677   12.4774 C.ar    1  UNL1        0.1026
     29 C          65.4686   92.0411   12.6959 C.ar    1  UNL1        0.0167
     30 N          67.1912   93.2941   11.2085 N.ar    1  UNL1       -0.1478
     31 N          66.8607   94.7237   10.8973 N.ar    1  UNL1       -0.1447
     32 C          67.3811   95.0316    9.5246 C.ar    1  UNL1        0.1446
     33 C          68.0333   93.7922    8.9874 C.ar    1  UNL1        0.1446
     34 N          67.9160   92.7183   10.0281 N.ar    1  UNL1       -0.1447
@<TRIPOS>BOND
     1    21    22    1
     2    22     9    1
     3     9    10   ar
     4    10    11   ar
     5    11    12   ar
     6    12    16    1
     7    16    17   ar
     8    17    18   ar
     9    18    19   ar
    10    19    20   ar
    11    12    13   ar
    12    13     1    1
    13     1     2    2
    14     1     3   am
    15     3     4    1
    16     4     5    1
    17     5     6    1
    18     6     7    1
    19     7     8    1
    20     8    23    1
    21    23    24    1
    22    24    25   ar
    23    25    26   ar
    24    26    27   ar
    25    27    28   ar
    26    28    30    1
    27    30    31   ar
    28    31    32   ar
    29    32    33   ar
    30    33    34   ar
    31    28    29   ar
    32    13    14   ar
    33    14    15    1
    34    14     9   ar
    35    20    16   ar
    36     8     3    1
    37    29    24   ar
    38    34    30   ar
@<TRIPOS>MOLECULE
*****
 34 38 0 0 0
SMALL
GASTEIGER

@<TRIPOS>ATOM
      1 C          62.8785   87.3334   11.9915 C.2     1  UNL1        0.2529
      2 O          63.6150   87.5551   13.2793 O.2     1  UNL1       -0.2698
      3 N          62.0455   88.4342   11.4048 N.am    1  UNL1       -0.2722
      4 C          61.3091   88.2126   10.1170 C.3     1  UNL1        0.1257
      5 C          60.4760   89.3134    9.5303 C.3     1  UNL1        0.1637
      6 O          60.3794   90.6359   10.2314 O.3     1  UNL1       -0.3502
      7 C          61.1159   90.8576   11.5192 C.3     1  UNL1        0.1622
      8 C          61.9489   89.7568   12.1059 C.3     1  UNL1        0.1096
      9 C          63.0420   84.6300    9.0907 C.ar    1  UNL1        0.1662
     10 C          63.1683   83.3659    9.8881 C.ar    1  UNL1        0.0408
     11 C          63.1981   83.4242   11.3867 C.ar    1  UNL1        0.0243
     12 C          63.1015   84.7467   12.0878 C.ar    1  UNL1        0.1096
     13 C          62.9751   86.0109   11.2904 C.ar    1  UNL1        0.1033
     14 C          62.9454   85.9525    9.7918 C.ar    1  UNL1        0.1796
     15 F          62.8191   87.2167    8.9944 F       1  UNL1       -0.2008
     16 N          63.1312   84.8051   13.5864 N.ar    1  UNL1       -0.1476
     17 N          64.3514   84.9979   14.4372 N.ar    1  UNL1       -0.1447
     18 C          63.9203   84.9928   15.8739 C.ar    1  UNL1        0.1446
     19 C          62.4336   84.7969   15.9110 C.ar    1  UNL1        0.1446
     20 N          61.9460   84.6809   14.4973 N.ar    1  UNL1       -0.1447
     21 C          61.7580   84.9313    6.8523 C.3     1  UNL1        0.2526
     22 O          63.0123   84.5716    7.5921 O.3     1  UNL1       -0.4692
     23 C          62.6854   89.9785   13.3937 C.3     1  UNL1        0.0488
     24 C          64.0098   90.6826   13.3887 C.ar    1  UNL1       -0.0189
     25 C          64.9659   90.4900   14.5283 C.ar    1  UNL1       -0.0041
     26 C          66.2904   91.1941   14.5233 C.ar    1  UNL1        0.0013
     27 C          66.6587   92.0908   13.3787 C.ar    1  UNL1        0.0209
     28 C          65.7026   92.2835   12.2391 C.ar    1  UNL1        0.1026
     29 C          64.3781   91.5794   12.2441 C.ar    1  UNL1        0.0167
     30 N          66.0709   93.1802   11.0945 N.ar    1  UNL1       -0.1478
     31 N          65.5121   94.5469   10.8298 N.ar    1  UNL1       -0.1447
     32 C          66.1585   95.0791    9.5853 C.ar    1  UNL1        0.1446
     33 C          67.1170   94.0414    9.0808 C.ar    1  UNL1        0.1446
     34 N          67.0629   92.8678   10.0134 N.ar    1  UNL1       -0.1447
@<TRIPOS>BOND
     1    21    22    1
     2    22     9    1
     3     9    10   ar
     4    10    11   ar
     5    11    12   ar
     6    12    16    1
     7    16    17   ar
     8    17    18   ar
     9    18    19   ar
    10    19    20   ar
    11    12    13   ar
    12    13     1    1
    13     1     2    2
    14     1     3   am
    15     3     4    1
    16     4     5    1
    17     5     6    1
    18     6     7    1
    19     7     8    1
    20     8    23    1
    21    23    24    1
    22    24    25   ar
    23    25    26   ar
    24    26    27   ar
    25    27    28   ar
    26    28    30    1
    27    30    31   ar
    28    31    32   ar
    29    32    33   ar
    30    33    34   ar
    31    28    29   ar
    32    13    14   ar
    33    14    15    1
    34    14     9   ar
    35    20    16   ar
    36     8     3    1
    37    29    24   ar
    38    34    30   ar
@<TRIPOS>MOLECULE
*****
 34 38 0 0 0
SMALL
GASTEIGER

@<TRIPOS>ATOM
      1 C          63.7406   86.6571   13.5867 C.2     1  UNL1        0.2529
      2 O          64.7581   87.0428   14.6192 O.2     1  UNL1       -0.2698
      3 N          63.1723   87.6980   12.6684 N.am    1  UNL1       -0.2722
      4 C          62.1547   87.3124   11.6359 C.3     1  UNL1        0.1257
      5 C          61.5864   88.3534   10.7175 C.3     1  UNL1        0.1637
      6 O          62.0356   89.7800   10.8316 O.3     1  UNL1       -0.3502
      7 C          63.0532   90.1656   11.8641 C.3     1  UNL1        0.1622
      8 C          63.6215   89.1247   12.7824 C.3     1  UNL1        0.1096
      9 C          62.9648   83.0813   12.0498 C.ar    1  UNL1        0.1662
     10 C          62.3930   82.3773   13.2445 C.ar    1  UNL1        0.0408
     11 C          62.2704   83.0998   14.5533 C.ar    1  UNL1        0.0243
     12 C          62.7196   84.5264   14.6674 C.ar    1  UNL1        0.1096
     13 C          63.2914   85.2305   13.4727 C.ar    1  UNL1        0.1033
     14 C          63.4140   84.5079   12.1639 C.ar    1  UNL1        0.1796
     15 F          63.9858   85.2121   10.9692 F       1  UNL1       -0.2008
     16 N          62.5970   85.2489   15.9762 N.ar    1  UNL1       -0.1476
     17 N          63.7055   85.4900   16.9575 N.ar    1  UNL1       -0.1447
     18 C          63.1380   86.2473   18.1212 C.ar    1  UNL1        0.1446
     19 C          61.6786   86.4743   17.8592 C.ar    1  UNL1        0.1446
     20 N          61.3443   85.8573   16.5335 N.ar    1  UNL1       -0.1447
     21 C          63.1461   80.8602   10.7142 C.3     1  UNL1        0.2526
     22 O          63.0874   82.3588   10.7410 O.3     1  UNL1       -0.4692
     23 C          64.6390   89.5103   13.8149 C.3     1  UNL1        0.0488
     24 C          65.2359   90.8864   13.8022 C.ar    1  UNL1       -0.0189
     25 C          65.4521   91.6219   15.0915 C.ar    1  UNL1       -0.0041
     26 C          66.0491   92.9980   15.0789 C.ar    1  UNL1        0.0013
     27 C          66.4298   93.6385   13.7771 C.ar    1  UNL1        0.0209
     28 C          66.2135   92.9029   12.4878 C.ar    1  UNL1        0.1026
     29 C          65.6166   91.5268   12.5004 C.ar    1  UNL1        0.0167
     30 N          66.5943   93.5433   11.1859 N.ar    1  UNL1       -0.1478
     31 N          65.9639   94.7657   10.5870 N.ar    1  UNL1       -0.1447
     32 C          66.6522   95.0517    9.2853 C.ar    1  UNL1        0.1446
     33 C          67.7080   94.0062    9.0797 C.ar    1  UNL1        0.1446
     34 N          67.6722   93.0739   10.2543 N.ar    1  UNL1       -0.1447
@<TRIPOS>BOND
     1    21    22    1
     2    22     9    1
     3     9    10   ar
     4    10    11   ar
     5    11    12   ar
     6    12    16    1
     7    16    17   ar
     8    17    18   ar
     9    18    19   ar
    10    19    20   ar
    11    12    13   ar
    12    13     1    1
    13     1     2    2
    14     1     3   am
    15     3     4    1
    16     4     5    1
    17     5     6    1
    18     6     7    1
    19     7     8    1
    20     8    23    1
    21    23    24    1
    22    24    25   ar
    23    25    26   ar
    24    26    27   ar
    25    27    28   ar
    26    28    30    1
    27    30    31   ar
    28    31    32   ar
    29    32    33   ar
    30    33    34   ar
    31    28    29   ar
    32    13    14   ar
    33    14    15    1
    34    14     9   ar
    35    20    16   ar
    36     8     3    1
    37    29    24   ar
    38    34    30   ar
@<TRIPOS>MOLECULE
*****
 34 38 0 0 0
SMALL
GASTEIGER

@<TRIPOS>ATOM
      1 C          62.3220   84.8087   12.1811 C.2     1  UNL1        0.2529
      2 O          61.6043   85.8756   12.9534 O.2     1  UNL1       -0.2698
      3 N          62.6217   85.0096   10.7252 N.am    1  UNL1       -0.2722
      4 C          63.3394   83.9426    9.9529 C.3     1  UNL1        0.1257
      5 C          63.6390   84.1436    8.4969 C.3     1  UNL1        0.1637
      6 O          63.2209   85.4115    7.8132 O.3     1  UNL1       -0.3502
      7 C          62.5031   86.4785    8.5855 C.3     1  UNL1        0.1622
      8 C          62.2035   86.2776   10.0414 C.3     1  UNL1        0.1096
      9 C          62.9184   80.9488   12.8855 C.ar    1  UNL1        0.1662
     10 C          63.5763   81.0048   14.2323 C.ar    1  UNL1        0.0408
     11 C          63.8162   82.3287   14.8954 C.ar    1  UNL1        0.0243
     12 C          63.3981   83.5967   14.2117 C.ar    1  UNL1        0.1096
     13 C          62.7402   83.5407   12.8649 C.ar    1  UNL1        0.1033
     14 C          62.5003   82.2168   12.2018 C.ar    1  UNL1        0.1796
     15 F          61.8423   82.1608   10.8549 F       1  UNL1       -0.2008
     16 N          63.6379   84.9206   14.8748 N.ar    1  UNL1       -0.1476
     17 N          64.6067   85.9717   14.4202 N.ar    1  UNL1       -0.1447
     18 C          64.5186   87.1266   15.3734 C.ar    1  UNL1        0.1446
     19 C          63.4954   86.7892   16.4171 C.ar    1  UNL1        0.1446
     20 N          62.9512   85.4258   16.1089 N.ar    1  UNL1       -0.1447
     21 C          62.9135   79.4706   10.7490 C.3     1  UNL1        0.2526
     22 O          62.6786   79.6249   12.2224 O.3     1  UNL1       -0.4692
     23 C          61.4858   87.3446   10.8136 C.3     1  UNL1        0.0488
     24 C          62.1119   88.6970   10.9838 C.ar    1  UNL1       -0.0189
     25 C          62.2017   89.6341    9.8161 C.ar    1  UNL1       -0.0041
     26 C          62.8278   90.9866    9.9863 C.ar    1  UNL1        0.0013
     27 C          63.3641   91.4018   11.3242 C.ar    1  UNL1        0.0209
     28 C          63.2742   90.4646   12.4919 C.ar    1  UNL1        0.1026
     29 C          62.6481   89.1122   12.3217 C.ar    1  UNL1        0.0167
     30 N          63.8105   90.8798   13.8298 N.ar    1  UNL1       -0.1478
     31 N          65.0256   91.7263   14.0686 N.ar    1  UNL1       -0.1447
     32 C          65.1919   91.8911   15.5502 C.ar    1  UNL1        0.1446
     33 C          64.0796   91.1464   16.2272 C.ar    1  UNL1        0.1446
     34 N          63.2258   90.5214   15.1639 N.ar    1  UNL1       -0.1447
@<TRIPOS>BOND
     1    21    22    1
     2    22     9    1
     3     9    10   ar
     4    10    11   ar
     5    11    12   ar
     6    12    16    1
     7    16    17   ar
     8    17    18   ar
     9    18    19   ar
    10    19    20   ar
    11    12    13   ar
    12    13     1    1
    13     1     2    2
    14     1     3   am
    15     3     4    1
    16     4     5    1
    17     5     6    1
    18     6     7    1
    19     7     8    1
    20     8    23    1
    21    23    24    1
    22    24    25   ar
    23    25    26   ar
    24    26    27   ar
    25    27    28   ar
    26    28    30    1
    27    30    31   ar
    28    31    32   ar
    29    32    33   ar
    30    33    34   ar
    31    28    29   ar
    32    13    14   ar
    33    14    15    1
    34    14     9   ar
    35    20    16   ar
    36     8     3    1
    37    29    24   ar
    38    34    30   ar
@<TRIPOS>MOLECULE
*****
 34 38 0 0 0
SMALL
GASTEIGER

@<TRIPOS>ATOM
      1 C          61.9336   88.5863   10.2068 C.2     1  UNL1        0.2529
      2 O          63.3964   88.7267    9.9062 O.2     1  UNL1       -0.2698
      3 N          61.4049   88.9717   11.5566 N.am    1  UNL1       -0.2722
      4 C          59.9421   88.8313   11.8572 C.3     1  UNL1        0.1257
      5 C          59.4135   89.2167   13.2071 C.3     1  UNL1        0.1637
      6 O          60.3477   89.7425   14.2563 O.3     1  UNL1       -0.3502
      7 C          61.8105   89.8829   13.9556 C.3     1  UNL1        0.1622
      8 C          62.3392   89.4975   12.6058 C.3     1  UNL1        0.1096
      9 C          59.1662   88.4772    7.3643 C.ar    1  UNL1        0.1662
     10 C          59.1310   87.0090    7.0592 C.ar    1  UNL1        0.0408
     11 C          60.0299   86.0666    7.8033 C.ar    1  UNL1        0.0243
     12 C          60.9641   86.5923    8.8525 C.ar    1  UNL1        0.1096
     13 C          60.9994   88.0605    9.1576 C.ar    1  UNL1        0.1033
     14 C          60.1004   89.0029    8.4135 C.ar    1  UNL1        0.1796
     15 F          60.1357   90.4712    8.7186 F       1  UNL1       -0.2008
     16 N          61.8631   85.6498    9.5965 N.ar    1  UNL1       -0.1476
     17 N          63.0410   84.9183    9.0244 N.ar    1  UNL1       -0.1447
     18 C          63.6479   84.0898   10.1176 C.ar    1  UNL1        0.1446
     19 C          62.8450   84.3093   11.3656 C.ar    1  UNL1        0.1446
     20 N          61.7420   85.2734   11.0435 N.ar    1  UNL1       -0.1447
     21 C          58.8545   90.4378    5.6883 C.3     1  UNL1        0.2526
     22 O          58.2673   89.4196    6.6202 O.3     1  UNL1       -0.4692
     23 C          63.8020   89.6379   12.3052 C.3     1  UNL1        0.0488
     24 C          64.5767   90.7910   12.8710 C.ar    1  UNL1       -0.0189
     25 C          64.9710   90.7916   14.3182 C.ar    1  UNL1       -0.0041
     26 C          65.7457   91.9448   14.8840 C.ar    1  UNL1        0.0013
     27 C          66.1260   93.0973   14.0026 C.ar    1  UNL1        0.0209
     28 C          65.7317   93.0967   12.5553 C.ar    1  UNL1        0.1026
     29 C          64.9570   91.9436   11.9895 C.ar    1  UNL1        0.0167
     30 N          66.1120   94.2493   11.6739 N.ar    1  UNL1       -0.1478
     31 N          66.5848   94.1545   10.2535 N.ar    1  UNL1       -0.1447
     32 C          66.8513   95.5456    9.7598 C.ar    1  UNL1        0.1446
     33 C          66.5433   96.5002   10.8751 C.ar    1  UNL1        0.1446
     34 N          66.0863   95.6991   12.0581 N.ar    1  UNL1       -0.1447
@<TRIPOS>BOND
     1    21    22    1
     2    22     9    1
     3     9    10   ar
     4    10    11   ar
     5    11    12   ar
     6    12    16    1
     7    16    17   ar
     8    17    18   ar
     9    18    19   ar
    10    19    20   ar
    11    12    13   ar
    12    13     1    1
    13     1     2    2
    14     1     3   am
    15     3     4    1
    16     4     5    1
    17     5     6    1
    18     6     7    1
    19     7     8    1
    20     8    23    1
    21    23    24    1
    22    24    25   ar
    23    25    26   ar
    24    26    27   ar
    25    27    28   ar
    26    28    30    1
    27    30    31   ar
    28    31    32   ar
    29    32    33   ar
    30    33    34   ar
    31    28    29   ar
    32    13    14   ar
    33    14    15    1
    34    14     9   ar
    35    20    16   ar
    36     8     3    1
    37    29    24   ar
    38    34    30   ar
@<TRIPOS>MOLECULE
*****
 34 38 0 0 0
SMALL
GASTEIGER

@<TRIPOS>ATOM
      1 C          62.8357   90.0783   12.2373 C.2     1  UNL1        0.2529
      2 O          61.7462   90.8449   11.5479 O.2     1  UNL1       -0.2698
      3 N          62.7742   88.5810   12.3013 N.am    1  UNL1       -0.2722
      4 C          63.8637   87.8144   12.9907 C.3     1  UNL1        0.1257
      5 C          63.8022   86.3169   13.0547 C.3     1  UNL1        0.1637
      6 O          62.6512   85.5862   12.4292 O.3     1  UNL1       -0.3502
      7 C          61.5617   86.3528   11.7398 C.3     1  UNL1        0.1622
      8 C          61.6232   87.8501   11.6758 C.3     1  UNL1        0.1096
      9 C          65.9874   92.4535   12.6556 C.ar    1  UNL1        0.1662
     10 C          66.2886   92.2707   14.1136 C.ar    1  UNL1        0.0408
     11 C          65.4389   91.3571   14.9462 C.ar    1  UNL1        0.0243
     12 C          64.2879   90.6263   14.3208 C.ar    1  UNL1        0.1096
     13 C          63.9867   90.8091   12.8628 C.ar    1  UNL1        0.1033
     14 C          64.8365   91.7227   12.0302 C.ar    1  UNL1        0.1796
     15 F          64.5352   91.9055   10.5721 F       1  UNL1       -0.2008
     16 N          63.4381   89.7127   15.1534 N.ar    1  UNL1       -0.1476
     17 N          63.9140   88.4997   15.8965 N.ar    1  UNL1       -0.1447
     18 C          62.7333   87.8890   16.5914 C.ar    1  UNL1        0.1446
     19 C          61.5277   88.7246   16.2779 C.ar    1  UNL1        0.1446
     20 N          61.9633   89.8517   15.3891 N.ar    1  UNL1       -0.1447
     21 C          66.2937   94.6889   11.3674 C.3     1  UNL1        0.2526
     22 O          66.8372   93.3671   11.8229 O.3     1  UNL1       -0.4692
     23 C          60.5337   88.6167   10.9864 C.3     1  UNL1        0.0488
     24 C          60.1405   88.2631    9.5827 C.ar    1  UNL1       -0.0189
     25 C          60.0031   86.8241    9.1824 C.ar    1  UNL1       -0.0041
     26 C          59.6099   86.4704    7.7786 C.ar    1  UNL1        0.0013
     27 C          59.3541   87.5558    6.7754 C.ar    1  UNL1        0.0209
     28 C          59.4915   88.9948    7.1758 C.ar    1  UNL1        0.1026
     29 C          59.8847   89.3485    8.5795 C.ar    1  UNL1        0.0167
     30 N          59.2357   90.0802    6.1725 N.ar    1  UNL1       -0.1478
     31 N          57.8936   90.6339    5.7955 N.ar    1  UNL1       -0.1447
     32 C          58.1055   91.6984    4.7601 C.ar    1  UNL1        0.1446
     33 C          59.5786   91.8025    4.4972 C.ar    1  UNL1        0.1446
     34 N          60.2772   90.8024    5.3701 N.ar    1  UNL1       -0.1447
@<TRIPOS>BOND
     1    21    22    1
     2    22     9    1
     3     9    10   ar
     4    10    11   ar
     5    11    12   ar
     6    12    16    1
     7    16    17   ar
     8    17    18   ar
     9    18    19   ar
    10    19    20   ar
    11    12    13   ar
    12    13     1    1
    13     1     2    2
    14     1     3   am
    15     3     4    1
    16     4     5    1
    17     5     6    1
    18     6     7    1
    19     7     8    1
    20     8    23    1
    21    23    24    1
    22    24    25   ar
    23    25    26   ar
    24    26    27   ar
    25    27    28   ar
    26    28    30    1
    27    30    31   ar
    28    31    32   ar
    29    32    33   ar
    30    33    34   ar
    31    28    29   ar
    32    13    14   ar
    33    14    15    1
    34    14     9   ar
    35    20    16   ar
    36     8     3    1
    37    29    24   ar
    38    34    30   ar
@<TRIPOS>MOLECULE
*****
 34 38 0 0 0
SMALL
GASTEIGER

@<TRIPOS>ATOM
      1 C          62.9808   89.5677   11.0349 C.2     1  UNL1        0.2529
      2 O          63.4839   88.8480    9.8188 O.2     1  UNL1       -0.2698
      3 N          61.6064   89.2795   11.5620 N.am    1  UNL1       -0.2722
      4 C          61.1033   89.9992   12.7781 C.3     1  UNL1        0.1257
      5 C          59.7289   89.7109   13.3052 C.3     1  UNL1        0.1637
      6 O          58.8576   88.7029   12.6162 O.3     1  UNL1       -0.3502
      7 C          59.3607   87.9832   11.4001 C.3     1  UNL1        0.1622
      8 C          60.7351   88.2714   10.8730 C.3     1  UNL1        0.1096
      9 C          65.0509   92.8807   11.7341 C.ar    1  UNL1        0.1662
     10 C          65.5949   92.5917   13.1017 C.ar    1  UNL1        0.0408
     11 C          65.2676   91.2947   13.7804 C.ar    1  UNL1        0.0243
     12 C          64.3963   90.2867   13.0915 C.ar    1  UNL1        0.1096
     13 C          63.8522   90.5757   11.7239 C.ar    1  UNL1        0.1033
     14 C          64.1795   91.8728   11.0452 C.ar    1  UNL1        0.1796
     15 F          63.6354   92.1618    9.6775 F       1  UNL1       -0.2008
     16 N          64.0690   88.9897   13.7702 N.ar    1  UNL1       -0.1476
     17 N          63.8304   88.7986   15.2387 N.ar    1  UNL1       -0.1447
     18 C          63.5368   87.3469   15.4757 C.ar    1  UNL1        0.1446
     19 C          63.5940   86.6406   14.1536 C.ar    1  UNL1        0.1446
     20 N          63.9229   87.6559   13.0996 N.ar    1  UNL1       -0.1447
     21 C          66.5149   94.2475   10.0793 C.3     1  UNL1        0.2526
     22 O          65.3781   94.1778   11.0554 O.3     1  UNL1       -0.4692
     23 C          61.2382   87.5517    9.6569 C.3     1  UNL1        0.0488
     24 C          61.9773   86.2549    9.8051 C.ar    1  UNL1       -0.0189
     25 C          62.8083   85.7316    8.6713 C.ar    1  UNL1       -0.0041
     26 C          63.5475   84.4347    8.8194 C.ar    1  UNL1        0.0013
     27 C          63.4556   83.6613   10.1013 C.ar    1  UNL1        0.0209
     28 C          62.6246   84.1848   11.2352 C.ar    1  UNL1        0.1026
     29 C          61.8855   85.4815   11.0870 C.ar    1  UNL1        0.0167
     30 N          62.5328   83.4113   12.5171 N.ar    1  UNL1       -0.1478
     31 N          62.4656   81.9182   12.6431 N.ar    1  UNL1       -0.1447
     32 C          62.3833   81.5793   14.1020 C.ar    1  UNL1        0.1446
     33 C          62.3996   82.8631   14.8777 C.ar    1  UNL1        0.1446
     34 N          62.4920   83.9954   13.8982 N.ar    1  UNL1       -0.1447
@<TRIPOS>BOND
     1    21    22    1
     2    22     9    1
     3     9    10   ar
     4    10    11   ar
     5    11    12   ar
     6    12    16    1
     7    16    17   ar
     8    17    18   ar
     9    18    19   ar
    10    19    20   ar
    11    12    13   ar
    12    13     1    1
    13     1     2    2
    14     1     3   am
    15     3     4    1
    16     4     5    1
    17     5     6    1
    18     6     7    1
    19     7     8    1
    20     8    23    1
    21    23    24    1
    22    24    25   ar
    23    25    26   ar
    24    26    27   ar
    25    27    28   ar
    26    28    30    1
    27    30    31   ar
    28    31    32   ar
    29    32    33   ar
    30    33    34   ar
    31    28    29   ar
    32    13    14   ar
    33    14    15    1
    34    14     9   ar
    35    20    16   ar
    36     8     3    1
    37    29    24   ar
    38    34    30   ar
