@<TRIPOS>MOLECULE
*****
 40 45 0 0 0
SMALL
GASTEIGER

@<TRIPOS>ATOM
      1 C          60.9179   86.1382    8.9288 C.ar    1  UNL1        0.1667
      2 N          61.9753   85.1343    8.5769 N.ar    1  UNL1       -0.2239
      3 C          62.7159   84.7814    9.8327 C.ar    1  UNL1        0.0893
      4 C          63.8588   83.8460   10.0948 C.ar    1  UNL1        0.0202
      5 C          64.4020   83.6966   11.4849 C.ar    1  UNL1        0.0081
      6 C          63.8022   84.4825   12.6130 C.ar    1  UNL1        0.0329
      7 C          62.6593   85.4179   12.3510 C.ar    1  UNL1        0.0146
      8 C          62.1161   85.5673   10.9608 C.ar    1  UNL1        0.0502
      9 S          61.0049   86.4059   10.4022 S.2     1  UNL1       -0.0513
     10 O          60.8059   89.1226    8.6440 O.2     1  UNL1       -0.2524
     11 C          59.8884   88.2567    7.8324 C.2     1  UNL1        0.3059
     12 N          58.9149   88.8830    6.8785 N.am    1  UNL1       -0.2872
     13 N          59.9444   86.7646    7.9749 N.am    1  UNL1       -0.2485
     14 H          58.3127   88.3148    6.3459 H       1  UNL1        0.1510
     15 H          59.3422   86.1963    7.4423 H       1  UNL1        0.1583
     16 C          58.8589   90.3753    6.7361 C.3     1  UNL1        0.1082
     17 C          58.5152   90.9899    5.4117 C.3     1  UNL1        0.0938
     18 N          59.6031   91.5236    4.5276 N.3     1  UNL1       -0.2670
     19 C          61.0039   91.0051    4.6659 C.3     1  UNL1        0.1047
     20 C          62.0918   91.5388    3.7818 C.3     1  UNL1        0.1595
     21 O          61.7790   92.5910    2.7595 O.3     1  UNL1       -0.3508
     22 C          60.3783   93.1095    2.6213 C.3     1  UNL1        0.1595
     23 C          59.2903   92.5758    3.5053 C.3     1  UNL1        0.1047
     24 S          64.3455   84.3330   14.0033 S.3     1  UNL1       -0.0470
     25 C          63.7100   85.0761   15.1407 C.ar    1  UNL1        0.2171
     26 N          62.9694   84.4615   16.2912 N.ar    1  UNL1       -0.1200
     27 N          62.5052   85.5699   17.1890 N.ar    1  UNL1       -0.1264
     28 C          62.9590   86.8696   16.5933 C.ar    1  UNL1        0.1872
     29 C          62.7904   88.2916   17.0400 C.ar    1  UNL1        0.0423
     30 C          63.3663   89.4084   16.2209 C.ar    1  UNL1        0.0241
     31 C          64.1109   89.1033   14.9550 C.ar    1  UNL1        0.1015
     32 N          64.2795   87.6813   14.5083 N.ar    1  UNL1       -0.1620
     33 N          63.7036   86.5644   15.3274 N.ar    1  UNL1       -0.1859
     34 C          64.6868   90.2200   14.1359 C.ar    1  UNL1        0.0195
     35 C          65.9488   90.9003   14.5772 C.ar    1  UNL1        0.0039
     36 C          66.5248   92.0171   13.7580 C.ar    1  UNL1        0.0297
     37 C          65.8388   92.4537   12.4976 C.ar    1  UNL1        0.1401
     38 F          66.4147   93.5705   11.6784 F       1  UNL1       -0.2042
     39 C          64.5768   91.7735   12.0563 C.ar    1  UNL1        0.0297
     40 C          64.0008   90.6567   12.8754 C.ar    1  UNL1        0.0039
@<TRIPOS>BOND
     1    10    11    2
     2    11    12   am
     3    12    16    1
     4    16    17    1
     5    17    18    1
     6    18    19    1
     7    19    20    1
     8    20    21    1
     9    21    22    1
    10    22    23    1
    11    11    13   am
    12    13     1    1
    13     1     2   ar
    14     2     3   ar
    15     3     4   ar
    16     4     5   ar
    17     5     6   ar
    18     6    24    1
    19    24    25    1
    20    25    26   ar
    21    26    27   ar
    22    27    28   ar
    23    28    29   ar
    24    29    30   ar
    25    30    31   ar
    26    31    34    1
    27    34    35   ar
    28    35    36   ar
    29    36    37   ar
    30    37    38    1
    31    37    39   ar
    32    39    40   ar
    33    31    32   ar
    34    32    33   ar
    35     6     7   ar
    36     7     8   ar
    37     8     9   ar
    38    23    18    1
    39     9     1   ar
    40     8     3   ar
    41    33    25   ar
    42    33    28   ar
    43    40    34   ar
    44    12    14    1
    45    13    15    1
@<TRIPOS>MOLECULE
*****
 40 45 0 0 0
SMALL
GASTEIGER

@<TRIPOS>ATOM
      1 C          64.3976   84.9841   15.4418 C.ar    1  UNL1        0.1667
      2 N          63.5485   85.4208   16.5986 N.ar    1  UNL1       -0.2239
      3 C          63.4696   86.9186   16.5763 C.ar    1  UNL1        0.0893
      4 C          62.7724   87.9003   17.4708 C.ar    1  UNL1        0.0202
      5 C          62.8754   89.3710   17.1945 C.ar    1  UNL1        0.0081
      6 C          63.6757   89.8600   16.0238 C.ar    1  UNL1        0.0329
      7 C          64.3729   88.8782   15.1294 C.ar    1  UNL1        0.0146
      8 C          64.2699   87.4075   15.4057 C.ar    1  UNL1        0.0502
      9 S          64.8434   86.2119   14.7045 S.2     1  UNL1       -0.0513
     10 O          62.2889   83.1656   14.3252 O.2     1  UNL1       -0.2524
     11 C          63.6863   82.6589   14.5266 C.2     1  UNL1        0.3059
     12 N          64.0293   81.2429   14.1697 N.am    1  UNL1       -0.2872
     13 N          64.7406   83.5681   15.0849 N.am    1  UNL1       -0.2485
     14 H          64.9465   80.9103   14.3019 H       1  UNL1        0.1510
     15 H          65.6578   83.2355   15.2170 H       1  UNL1        0.1583
     16 C          62.9749   80.3337   13.6114 C.3     1  UNL1        0.1082
     17 C          62.4947   80.5185   12.2025 C.3     1  UNL1        0.0938
     18 N          62.8718   81.7522   11.4373 N.3     1  UNL1       -0.2670
     19 C          62.1066   83.0258   11.6433 C.3     1  UNL1        0.1047
     20 C          62.4837   84.2596   10.8781 C.3     1  UNL1        0.1595
     21 O          63.6261   84.2198    9.9068 O.3     1  UNL1       -0.3508
     22 C          64.3913   82.9462    9.7007 C.3     1  UNL1        0.1595
     23 C          64.0142   81.7124   10.4660 C.3     1  UNL1        0.1047
     24 S          63.7788   91.3308   15.7476 S.3     1  UNL1       -0.0470
     25 C          64.4781   91.8146   14.5120 C.ar    1  UNL1        0.2171
     26 N          65.6470   92.7538   14.4710 N.ar    1  UNL1       -0.1200
     27 N          66.0227   92.9639   13.0341 N.ar    1  UNL1       -0.1264
     28 C          65.0859   92.1545   12.1870 C.ar    1  UNL1        0.1872
     29 C          64.9788   91.9725   10.7020 C.ar    1  UNL1        0.0423
     30 C          63.9173   91.0802   10.1302 C.ar    1  UNL1        0.0241
     31 C          62.9627   90.3699   11.0436 C.ar    1  UNL1        0.1015
     32 N          63.0698   90.5519   12.5287 N.ar    1  UNL1       -0.1620
     33 N          64.1314   91.4442   13.1004 N.ar    1  UNL1       -0.1859
     34 C          61.9011   89.4776   10.4720 C.ar    1  UNL1        0.0195
     35 C          61.0595   89.9530    9.3250 C.ar    1  UNL1        0.0039
     36 C          59.9978   89.0607    8.7533 C.ar    1  UNL1        0.0297
     37 C          59.7779   87.6931    9.3287 C.ar    1  UNL1        0.1401
     38 F          58.7162   86.8007    8.7571 F       1  UNL1       -0.2042
     39 C          60.6196   87.2176   10.4758 C.ar    1  UNL1        0.0297
     40 C          61.6811   88.1099   11.0474 C.ar    1  UNL1        0.0039
@<TRIPOS>BOND
     1    10    11    2
     2    11    12   am
     3    12    16    1
     4    16    17    1
     5    17    18    1
     6    18    19    1
     7    19    20    1
     8    20    21    1
     9    21    22    1
    10    22    23    1
    11    11    13   am
    12    13     1    1
    13     1     2   ar
    14     2     3   ar
    15     3     4   ar
    16     4     5   ar
    17     5     6   ar
    18     6    24    1
    19    24    25    1
    20    25    26   ar
    21    26    27   ar
    22    27    28   ar
    23    28    29   ar
    24    29    30   ar
    25    30    31   ar
    26    31    34    1
    27    34    35   ar
    28    35    36   ar
    29    36    37   ar
    30    37    38    1
    31    37    39   ar
    32    39    40   ar
    33    31    32   ar
    34    32    33   ar
    35     6     7   ar
    36     7     8   ar
    37     8     9   ar
    38    23    18    1
    39     9     1   ar
    40     8     3   ar
    41    33    25   ar
    42    33    28   ar
    43    40    34   ar
    44    12    14    1
    45    13    15    1
@<TRIPOS>MOLECULE
*****
 40 45 0 0 0
SMALL
GASTEIGER

@<TRIPOS>ATOM
      1 C          62.6402   92.1708    2.5199 C.ar    1  UNL1        0.1667
      2 N          61.2615   92.7461    2.3844 N.ar    1  UNL1       -0.2239
      3 C          60.4035   92.1526    3.4621 C.ar    1  UNL1        0.0893
      4 C          58.9594   92.3483    3.8171 C.ar    1  UNL1        0.0202
      5 C          58.3636   91.6019    4.9737 C.ar    1  UNL1        0.0081
      6 C          59.2119   90.6597    5.7754 C.ar    1  UNL1        0.0329
      7 C          60.6561   90.4640    5.4204 C.ar    1  UNL1        0.0146
      8 C          61.2519   91.2105    4.2638 C.ar    1  UNL1        0.0502
      9 S          62.6342   91.2217    3.6814 S.2     1  UNL1       -0.0513
     10 O          63.0617   94.9717    1.5311 O.2     1  UNL1       -0.2524
     11 C          64.0287   93.8892    1.1528 C.2     1  UNL1        0.3059
     12 N          65.2065   94.2072    0.2800 N.am    1  UNL1       -0.2872
     13 N          63.8180   92.4888    1.6472 N.am    1  UNL1       -0.2485
     14 H          65.8412   93.4967    0.0317 H       1  UNL1        0.1510
     15 H          64.4527   91.7784    1.3988 H       1  UNL1        0.1583
     16 C          65.4173   95.6076   -0.2144 C.3     1  UNL1        0.1082
     17 C          64.8752   96.0208   -1.5506 C.3     1  UNL1        0.0938
     18 N          63.7813   95.2225   -2.1956 N.3     1  UNL1       -0.2670
     19 C          64.1217   94.1347   -3.1707 C.3     1  UNL1        0.1047
     20 C          63.0278   93.3364   -3.8157 C.3     1  UNL1        0.1595
     21 O          61.5935   93.6259   -3.4857 O.3     1  UNL1       -0.3508
     22 C          61.2531   94.7137   -2.5106 C.3     1  UNL1        0.1595
     23 C          62.3470   95.5121   -1.8656 C.3     1  UNL1        0.1047
     24 S          58.6161   89.9133    6.9320 S.3     1  UNL1       -0.0470
     25 C          59.1779   88.5822    7.3351 C.ar    1  UNL1        0.2171
     26 N          58.7514   87.2469    6.8012 N.ar    1  UNL1       -0.1200
     27 N          59.5748   86.1921    7.4790 N.ar    1  UNL1       -0.1264
     28 C          60.5103   86.8756    8.4318 C.ar    1  UNL1        0.1872
     29 C          61.5538   86.3437    9.3689 C.ar    1  UNL1        0.0423
     30 C          62.3521   87.2888   10.2170 C.ar    1  UNL1        0.0241
     31 C          62.1068   88.7660   10.1281 C.ar    1  UNL1        0.1015
     32 N          61.0633   89.2979    9.1910 N.ar    1  UNL1       -0.1620
     33 N          60.2650   88.3527    8.3428 N.ar    1  UNL1       -0.1859
     34 C          62.9050   89.7112   10.9762 C.ar    1  UNL1        0.0195
     35 C          63.4331   90.9850   10.3860 C.ar    1  UNL1        0.0039
     36 C          64.2314   91.9303   11.2342 C.ar    1  UNL1        0.0297
     37 C          64.5015   91.6017   12.6726 C.ar    1  UNL1        0.1401
     38 F          65.2997   92.5469   13.5207 F       1  UNL1       -0.2042
     39 C          63.9733   90.3278   13.2628 C.ar    1  UNL1        0.0297
     40 C          63.1752   89.3826   12.4147 C.ar    1  UNL1        0.0039
@<TRIPOS>BOND
     1    10    11    2
     2    11    12   am
     3    12    16    1
     4    16    17    1
     5    17    18    1
     6    18    19    1
     7    19    20    1
     8    20    21    1
     9    21    22    1
    10    22    23    1
    11    11    13   am
    12    13     1    1
    13     1     2   ar
    14     2     3   ar
    15     3     4   ar
    16     4     5   ar
    17     5     6   ar
    18     6    24    1
    19    24    25    1
    20    25    26   ar
    21    26    27   ar
    22    27    28   ar
    23    28    29   ar
    24    29    30   ar
    25    30    31   ar
    26    31    34    1
    27    34    35   ar
    28    35    36   ar
    29    36    37   ar
    30    37    38    1
    31    37    39   ar
    32    39    40   ar
    33    31    32   ar
    34    32    33   ar
    35     6     7   ar
    36     7     8   ar
    37     8     9   ar
    38    23    18    1
    39     9     1   ar
    40     8     3   ar
    41    33    25   ar
    42    33    28   ar
    43    40    34   ar
    44    12    14    1
    45    13    15    1
@<TRIPOS>MOLECULE
*****
 40 45 0 0 0
SMALL
GASTEIGER

@<TRIPOS>ATOM
      1 C          60.5418   88.0248    9.0317 C.ar    1  UNL1        0.1667
      2 N          61.1996   87.0052    8.1497 N.ar    1  UNL1       -0.2239
      3 C          61.9804   86.0700    9.0248 C.ar    1  UNL1        0.0893
      4 C          62.8282   84.8734    8.7098 C.ar    1  UNL1        0.0202
      5 C          63.5008   84.1183    9.8176 C.ar    1  UNL1        0.0081
      6 C          63.3257   84.5598   11.2404 C.ar    1  UNL1        0.0329
      7 C          62.4778   85.7564   11.5554 C.ar    1  UNL1        0.0146
      8 C          61.8052   86.5115   10.4476 C.ar    1  UNL1        0.0502
      9 S          60.9162   87.7197   10.4518 S.2     1  UNL1       -0.0513
     10 O          60.2891   88.6359    6.1055 O.2     1  UNL1       -0.2524
     11 C          59.5376   89.4572    7.1109 C.2     1  UNL1        0.3059
     12 N          58.6597   90.5841    6.6531 N.am    1  UNL1       -0.2872
     13 N          59.6640   89.1517    8.5739 N.am    1  UNL1       -0.2485
     14 H          58.1665   91.1231    7.3129 H       1  UNL1        0.1510
     15 H          59.1707   89.6907    9.2338 H       1  UNL1        0.1583
     16 C          58.5334   90.8896    5.1899 C.3     1  UNL1        0.1082
     17 C          58.9381   92.2361    4.6673 C.3     1  UNL1        0.0938
     18 N          60.0234   92.3457    3.6377 N.3     1  UNL1       -0.2670
     19 C          59.7353   92.9792    2.3088 C.3     1  UNL1        0.1047
     20 C          60.8206   93.0889    1.2793 C.3     1  UNL1        0.1595
     21 O          62.1940   92.5651    1.5785 O.3     1  UNL1       -0.3508
     22 C          62.4820   91.9316    2.9072 C.3     1  UNL1        0.1595
     23 C          61.3967   91.8219    3.9369 C.3     1  UNL1        0.1047
     24 S          63.9984   83.8046   12.3483 S.3     1  UNL1       -0.0470
     25 C          63.3936   83.7897   13.7209 C.ar    1  UNL1        0.2171
     26 N          62.7709   82.6044   14.3972 N.ar    1  UNL1       -0.1200
     27 N          62.2978   83.0396   15.7524 N.ar    1  UNL1       -0.1264
     28 C          62.6281   84.4940   15.9137 C.ar    1  UNL1        0.1872
     29 C          62.3996   85.4560   17.0416 C.ar    1  UNL1        0.0423
     30 C          62.8483   86.8816   16.9141 C.ar    1  UNL1        0.0241
     31 C          63.5256   87.3452   15.6585 C.ar    1  UNL1        0.1015
     32 N          63.7540   86.3832   14.5305 N.ar    1  UNL1       -0.1620
     33 N          63.3053   84.9575   14.6581 N.ar    1  UNL1       -0.1859
     34 C          63.9743   88.7707   15.5308 C.ar    1  UNL1        0.0195
     35 C          63.4902   89.7999   16.5088 C.ar    1  UNL1        0.0039
     36 C          63.9389   91.2255   16.3813 C.ar    1  UNL1        0.0297
     37 C          64.8718   91.6220   15.2756 C.ar    1  UNL1        0.1401
     38 F          65.3206   93.0476   15.1480 F       1  UNL1       -0.2042
     39 C          65.3560   90.5928   14.2975 C.ar    1  UNL1        0.0297
     40 C          64.9072   89.1673   14.4251 C.ar    1  UNL1        0.0039
@<TRIPOS>BOND
     1    10    11    2
     2    11    12   am
     3    12    16    1
     4    16    17    1
     5    17    18    1
     6    18    19    1
     7    19    20    1
     8    20    21    1
     9    21    22    1
    10    22    23    1
    11    11    13   am
    12    13     1    1
    13     1     2   ar
    14     2     3   ar
    15     3     4   ar
    16     4     5   ar
    17     5     6   ar
    18     6    24    1
    19    24    25    1
    20    25    26   ar
    21    26    27   ar
    22    27    28   ar
    23    28    29   ar
    24    29    30   ar
    25    30    31   ar
    26    31    34    1
    27    34    35   ar
    28    35    36   ar
    29    36    37   ar
    30    37    38    1
    31    37    39   ar
    32    39    40   ar
    33    31    32   ar
    34    32    33   ar
    35     6     7   ar
    36     7     8   ar
    37     8     9   ar
    38    23    18    1
    39     9     1   ar
    40     8     3   ar
    41    33    25   ar
    42    33    28   ar
    43    40    34   ar
    44    12    14    1
    45    13    15    1
@<TRIPOS>MOLECULE
*****
 40 45 0 0 0
SMALL
GASTEIGER

@<TRIPOS>ATOM
      1 C          60.2264   88.7087    8.6491 C.ar    1  UNL1        0.1667
      2 N          60.7240   87.5183    7.8842 N.ar    1  UNL1       -0.2239
      3 C          61.4858   86.6422    8.8341 C.ar    1  UNL1        0.0893
      4 C          62.2004   85.3374    8.6425 C.ar    1  UNL1        0.0202
      5 C          62.8881   84.6816    9.8031 C.ar    1  UNL1        0.0081
      6 C          62.8613   85.3306   11.1551 C.ar    1  UNL1        0.0329
      7 C          62.1467   86.6355   11.3466 C.ar    1  UNL1        0.0146
      8 C          61.4589   87.2913   10.1861 C.ar    1  UNL1        0.0502
      9 S          60.6805   88.5684   10.0718 S.2     1  UNL1       -0.0513
     10 O          60.3501   89.3363    5.7181 O.2     1  UNL1       -0.2524
     11 C          59.4785   90.1545    6.6242 C.2     1  UNL1        0.3059
     12 N          58.6689   91.2865    6.0647 N.am    1  UNL1       -0.2872
     13 N          59.4167   89.8407    8.0897 N.am    1  UNL1       -0.2485
     14 H          58.0968   91.8236    6.6594 H       1  UNL1        0.1510
     15 H          58.8446   90.3777    8.6843 H       1  UNL1        0.1583
     16 C          58.7308   91.6003    4.5992 C.3     1  UNL1        0.1082
     17 C          59.9371   92.2859    4.0293 C.3     1  UNL1        0.0938
     18 N          59.8028   93.1503    2.8108 N.3     1  UNL1       -0.2670
     19 C          60.2990   94.5657    2.8369 C.3     1  UNL1        0.1047
     20 C          60.1647   95.4301    1.6184 C.3     1  UNL1        0.1595
     21 O          59.5342   94.8792    0.3738 O.3     1  UNL1       -0.3508
     22 C          59.0380   93.4639    0.3477 C.3     1  UNL1        0.1595
     23 C          59.1723   92.5994    1.5662 C.3     1  UNL1        0.1047
     24 S          63.5491   84.6748   12.3157 S.3     1  UNL1       -0.0470
     25 C          63.2308   85.1051   13.7169 C.ar    1  UNL1        0.2171
     26 N          62.6383   84.2421   14.7912 N.ar    1  UNL1       -0.1200
     27 N          62.4904   85.0776   16.0281 N.ar    1  UNL1       -0.1264
     28 C          62.9916   86.4571   15.7182 C.ar    1  UNL1        0.1872
     29 C          63.0905   87.7000   16.5522 C.ar    1  UNL1        0.0423
     30 C          63.6468   88.9598   15.9579 C.ar    1  UNL1        0.0241
     31 C          64.1044   88.9768   14.5294 C.ar    1  UNL1        0.1015
     32 N          64.0056   87.7339   13.6955 N.ar    1  UNL1       -0.1620
     33 N          63.4492   86.4741   14.2898 N.ar    1  UNL1       -0.1859
     34 C          64.6607   90.2365   13.9350 C.ar    1  UNL1        0.0195
     35 C          64.1056   90.7667   12.6464 C.ar    1  UNL1        0.0039
     36 C          64.6619   92.0265   12.0519 C.ar    1  UNL1        0.0297
     37 C          65.7735   92.7562   12.7462 C.ar    1  UNL1        0.1401
     38 F          66.3299   94.0160   12.1518 F       1  UNL1       -0.2042
     39 C          66.3287   92.2260   14.0349 C.ar    1  UNL1        0.0297
     40 C          65.7723   90.9663   14.6293 C.ar    1  UNL1        0.0039
@<TRIPOS>BOND
     1    10    11    2
     2    11    12   am
     3    12    16    1
     4    16    17    1
     5    17    18    1
     6    18    19    1
     7    19    20    1
     8    20    21    1
     9    21    22    1
    10    22    23    1
    11    11    13   am
    12    13     1    1
    13     1     2   ar
    14     2     3   ar
    15     3     4   ar
    16     4     5   ar
    17     5     6   ar
    18     6    24    1
    19    24    25    1
    20    25    26   ar
    21    26    27   ar
    22    27    28   ar
    23    28    29   ar
    24    29    30   ar
    25    30    31   ar
    26    31    34    1
    27    34    35   ar
    28    35    36   ar
    29    36    37   ar
    30    37    38    1
    31    37    39   ar
    32    39    40   ar
    33    31    32   ar
    34    32    33   ar
    35     6     7   ar
    36     7     8   ar
    37     8     9   ar
    38    23    18    1
    39     9     1   ar
    40     8     3   ar
    41    33    25   ar
    42    33    28   ar
    43    40    34   ar
    44    12    14    1
    45    13    15    1
