@<TRIPOS>MOLECULE
*****
 30 33 0 0 0
SMALL
GASTEIGER

@<TRIPOS>ATOM
      1 N          62.5407   86.1096   11.1207 N.pl3   1  UNL1       -0.2567
      2 C          62.8792   87.5347   11.4441 C.ar    1  UNL1        0.1408
      3 N          62.5061   88.4552   10.3200 N.ar    1  UNL1       -0.2290
      4 C          62.7613   89.9283   10.4410 C.ar    1  UNL1        0.0969
      5 C          63.3895   90.4810   11.6859 C.ar    1  UNL1        0.0084
      6 C          63.7626   89.5605   12.8100 C.ar    1  UNL1        0.0055
      7 C          63.5074   88.0873   12.6890 C.ar    1  UNL1        0.0853
      8 C          63.9523   87.3514   13.9180 C.2     1  UNL1        0.2523
      9 O          64.5496   88.1977   15.0029 O.2     1  UNL1       -0.2697
     10 N          63.8789   85.8811   14.2057 N.am    1  UNL1       -0.2784
     11 C          63.3424   84.7835   13.3353 C.ar    1  UNL1        0.0789
     12 C          63.4572   83.4467   14.0059 C.ar    1  UNL1       -0.0041
     13 C          64.0527   83.3450   15.3788 C.3     1  UNL1        0.0325
     14 C          62.9765   82.2115   13.3035 C.ar    1  UNL1        0.0177
     15 C          62.3809   82.3132   11.9306 C.ar    1  UNL1        0.1001
     16 N          62.2661   83.6500   11.2600 N.ar    1  UNL1       -0.2276
     17 C          62.7468   84.8852   11.9623 C.ar    1  UNL1        0.1497
     18 H          64.2291   85.5991   15.0816 H       1  UNL1        0.1552
     19 C          62.7782   85.6170    8.5808 C.3     1  UNL1        0.0237
     20 C          61.9131   85.8783    9.7781 C.3     1  UNL1        0.0984
     21 C          63.6447   91.9542   11.8068 C.3     1  UNL1        0.0899
     22 S          64.9641   92.4470   12.3228 S.3     1  UNL1       -0.1087
     23 C          65.9135   93.1533   11.4008 C.ar    1  UNL1        0.0279
     24 C          65.9129   94.6515   11.3276 C.ar    1  UNL1        0.0209
     25 C          66.8622   95.3577   10.4057 C.ar    1  UNL1        0.0595
     26 C          66.8616   96.8560   10.3325 C.3     1  UNL1        0.0521
     27 N          67.8122   94.5657    9.5570 N.ar    1  UNL1       -0.2539
     28 C          67.8129   93.0675    9.6302 C.ar    1  UNL1        0.0595
     29 C          68.7629   92.2756    8.7815 C.3     1  UNL1        0.0521
     30 C          66.8635   92.3613   10.5521 C.ar    1  UNL1        0.0209
@<TRIPOS>BOND
     1    19    20    1
     2    20     1    1
     3     1     2    1
     4     2     3   ar
     5     3     4   ar
     6     4     5   ar
     7     5    21    1
     8    21    22    1
     9    22    23    1
    10    23    24   ar
    11    24    25   ar
    12    25    26    1
    13    25    27   ar
    14    27    28   ar
    15    28    29    1
    16    28    30   ar
    17     5     6   ar
    18     6     7   ar
    19     7     8    1
    20     8     9    2
    21     8    10   am
    22    10    11    1
    23    11    12   ar
    24    12    13    1
    25    12    14   ar
    26    14    15   ar
    27    15    16   ar
    28    16    17   ar
    29    17     1    1
    30     7     2   ar
    31    17    11   ar
    32    30    23   ar
    33    10    18    1
@<TRIPOS>MOLECULE
*****
 30 33 0 0 0
SMALL
GASTEIGER

@<TRIPOS>ATOM
      1 N          61.9679   87.3584   11.1184 N.pl3   1  UNL1       -0.2567
      2 C          62.7464   88.4305   11.8218 C.ar    1  UNL1        0.1408
      3 N          63.4326   87.8970   13.0442 N.ar    1  UNL1       -0.2290
      4 C          64.2667   88.8089   13.8942 C.ar    1  UNL1        0.0969
      5 C          64.4145   90.2544   13.5218 C.ar    1  UNL1        0.0084
      6 C          63.7283   90.7879   12.2993 C.ar    1  UNL1        0.0055
      7 C          62.8942   89.8760   11.4493 C.ar    1  UNL1        0.0853
      8 C          62.3000   90.6063   10.2816 C.2     1  UNL1        0.2523
      9 O          62.6395   92.0642   10.1848 O.2     1  UNL1       -0.2697
     10 N          61.4114   90.0717    9.1979 N.am    1  UNL1       -0.2784
     11 C          60.8974   88.6745    9.0143 C.ar    1  UNL1        0.0789
     12 C          60.0331   88.5646    7.7933 C.ar    1  UNL1       -0.0041
     13 C          59.7854   89.7721    6.9386 C.3     1  UNL1        0.0325
     14 C          59.4164   87.2471    7.4269 C.ar    1  UNL1        0.0177
     15 C          59.6641   86.0397    8.2816 C.ar    1  UNL1        0.1001
     16 N          60.5284   86.1495    9.5027 N.ar    1  UNL1       -0.2276
     17 C          61.1450   87.4669    9.8690 C.ar    1  UNL1        0.1497
     18 H          61.1280   90.7240    8.5171 H       1  UNL1        0.1552
     19 C          62.9060   84.9361   11.1679 C.3     1  UNL1        0.0237
     20 C          62.0191   85.9978   11.7478 C.3     1  UNL1        0.0984
     21 C          65.2486   91.1664   14.3719 C.3     1  UNL1        0.0899
     22 S          66.6301   91.5486   13.9298 S.3     1  UNL1       -0.1087
     23 C          66.8177   92.4130   12.7183 C.ar    1  UNL1        0.0279
     24 C          66.2652   93.8074   12.6991 C.ar    1  UNL1        0.0209
     25 C          66.4528   94.6718   11.4877 C.ar    1  UNL1        0.0595
     26 C          65.9002   96.0662   11.4684 C.3     1  UNL1        0.0521
     27 N          67.1929   94.1418   10.2955 N.ar    1  UNL1       -0.2539
     28 C          67.7455   92.7474   10.3147 C.ar    1  UNL1        0.0595
     29 C          68.4857   92.2175    9.1226 C.3     1  UNL1        0.0521
     30 C          67.5579   91.8830   11.5262 C.ar    1  UNL1        0.0209
@<TRIPOS>BOND
     1    19    20    1
     2    20     1    1
     3     1     2    1
     4     2     3   ar
     5     3     4   ar
     6     4     5   ar
     7     5    21    1
     8    21    22    1
     9    22    23    1
    10    23    24   ar
    11    24    25   ar
    12    25    26    1
    13    25    27   ar
    14    27    28   ar
    15    28    29    1
    16    28    30   ar
    17     5     6   ar
    18     6     7   ar
    19     7     8    1
    20     8     9    2
    21     8    10   am
    22    10    11    1
    23    11    12   ar
    24    12    13    1
    25    12    14   ar
    26    14    15   ar
    27    15    16   ar
    28    16    17   ar
    29    17     1    1
    30     7     2   ar
    31    17    11   ar
    32    30    23   ar
    33    10    18    1
@<TRIPOS>MOLECULE
*****
 30 33 0 0 0
SMALL
GASTEIGER

@<TRIPOS>ATOM
      1 N          63.7804   85.4165   14.1783 N.pl3   1  UNL1       -0.2567
      2 C          63.4772   86.6530   13.3851 C.ar    1  UNL1        0.1408
      3 N          63.7744   87.8952   14.1716 N.ar    1  UNL1       -0.2290
      4 C          63.5399   89.2444   13.5596 C.ar    1  UNL1        0.0969
      5 C          63.0082   89.3514   12.1610 C.ar    1  UNL1        0.0084
      6 C          62.7110   88.1092   11.3746 C.ar    1  UNL1        0.0055
      7 C          62.9455   86.7600   11.9866 C.ar    1  UNL1        0.0853
      8 C          62.5857   85.6569   11.0360 C.2     1  UNL1        0.2523
      9 O          62.0754   86.0942    9.6949 O.2     1  UNL1       -0.2697
     10 N          62.6687   84.1744   11.2489 N.am    1  UNL1       -0.2784
     11 C          63.1321   83.4289   12.4653 C.ar    1  UNL1        0.0789
     12 C          63.0563   81.9449   12.2604 C.ar    1  UNL1       -0.0041
     13 C          62.5616   81.3922   10.9567 C.3     1  UNL1        0.0325
     14 C          63.4752   81.0137   13.3592 C.ar    1  UNL1        0.0177
     15 C          63.9700   81.5664   14.6628 C.ar    1  UNL1        0.1001
     16 N          64.0458   83.0504   14.8678 N.ar    1  UNL1       -0.2276
     17 C          63.6269   83.9817   13.7690 C.ar    1  UNL1        0.1497
     18 H          62.3811   83.6171   10.4901 H       1  UNL1        0.1552
     19 C          63.3554   85.9036   16.6948 C.3     1  UNL1        0.0237
     20 C          64.3069   85.6452   15.5642 C.3     1  UNL1        0.0984
     21 C          62.7737   90.7007   11.5490 C.3     1  UNL1        0.0899
     22 S          63.8167   91.3135   10.6622 S.3     1  UNL1       -0.1087
     23 C          64.7984   92.2967   11.2276 C.ar    1  UNL1        0.0279
     24 C          65.1868   92.2211   12.6744 C.ar    1  UNL1        0.0209
     25 C          66.1685   93.2042   13.2398 C.ar    1  UNL1        0.0595
     26 C          66.5570   93.1286   14.6867 C.3     1  UNL1        0.0521
     27 N          66.7617   94.2631   12.3583 N.ar    1  UNL1       -0.2539
     28 C          66.3733   94.3387   10.9115 C.ar    1  UNL1        0.0595
     29 C          66.9665   95.3976   10.0301 C.3     1  UNL1        0.0521
     30 C          65.3916   93.3556   10.3462 C.ar    1  UNL1        0.0209
@<TRIPOS>BOND
     1    19    20    1
     2    20     1    1
     3     1     2    1
     4     2     3   ar
     5     3     4   ar
     6     4     5   ar
     7     5    21    1
     8    21    22    1
     9    22    23    1
    10    23    24   ar
    11    24    25   ar
    12    25    26    1
    13    25    27   ar
    14    27    28   ar
    15    28    29    1
    16    28    30   ar
    17     5     6   ar
    18     6     7   ar
    19     7     8    1
    20     8     9    2
    21     8    10   am
    22    10    11    1
    23    11    12   ar
    24    12    13    1
    25    12    14   ar
    26    14    15   ar
    27    15    16   ar
    28    16    17   ar
    29    17     1    1
    30     7     2   ar
    31    17    11   ar
    32    30    23   ar
    33    10    18    1
@<TRIPOS>MOLECULE
*****
 30 33 0 0 0
SMALL
GASTEIGER

@<TRIPOS>ATOM
      1 N          61.8808   86.4488   10.6240 N.pl3   1  UNL1       -0.2567
      2 C          62.5311   87.3301   11.6490 C.ar    1  UNL1        0.1408
      3 N          63.2449   86.5227   12.6923 N.ar    1  UNL1       -0.2290
      4 C          63.9641   87.2134   13.8129 C.ar    1  UNL1        0.0969
      5 C          63.9695   88.7114   13.8901 C.ar    1  UNL1        0.0084
      6 C          63.2556   89.5187   12.8468 C.ar    1  UNL1        0.0055
      7 C          62.5364   88.8281   11.7262 C.ar    1  UNL1        0.0853
      8 C          61.8928   89.8147   10.7976 C.2     1  UNL1        0.2523
      9 O          62.0821   91.2601   11.1509 O.2     1  UNL1       -0.2697
     10 N          61.0850   89.5471    9.5624 N.am    1  UNL1       -0.2784
     11 C          60.7212   88.2266    8.9507 C.ar    1  UNL1        0.0789
     12 C          59.8965   88.4058    7.7106 C.ar    1  UNL1       -0.0041
     13 C          59.5423   89.7846    7.2382 C.3     1  UNL1        0.0325
     14 C          59.4260   87.2060    6.9430 C.ar    1  UNL1        0.0177
     15 C          59.7802   85.8271    7.4155 C.ar    1  UNL1        0.1001
     16 N          60.6049   85.6480    8.6555 N.ar    1  UNL1       -0.2276
     17 C          61.0754   86.8477    9.4232 C.ar    1  UNL1        0.1497
     18 H          60.7491   90.3434    9.0907 H       1  UNL1        0.1552
     19 C          63.2586   84.2774   10.2534 C.3     1  UNL1        0.0237
     20 C          62.0598   84.9733   10.8267 C.3     1  UNL1        0.0984
     21 C          64.6887   89.4020   15.0108 C.3     1  UNL1        0.0899
     22 S          64.4652   90.8647   15.2566 S.3     1  UNL1       -0.1087
     23 C          65.4424   91.8722   14.7271 C.ar    1  UNL1        0.0279
     24 C          66.5410   92.3870   15.6092 C.ar    1  UNL1        0.0209
     25 C          67.5181   93.3943   15.0797 C.ar    1  UNL1        0.0595
     26 C          68.6167   93.9092   15.9618 C.3     1  UNL1        0.0521
     27 N          67.3967   93.8869   13.6681 N.ar    1  UNL1       -0.2539
     28 C          66.2981   93.3721   12.7860 C.ar    1  UNL1        0.0595
     29 C          66.1767   93.8646   11.3744 C.3     1  UNL1        0.0521
     30 C          65.3210   92.3647   13.3155 C.ar    1  UNL1        0.0209
@<TRIPOS>BOND
     1    19    20    1
     2    20     1    1
     3     1     2    1
     4     2     3   ar
     5     3     4   ar
     6     4     5   ar
     7     5    21    1
     8    21    22    1
     9    22    23    1
    10    23    24   ar
    11    24    25   ar
    12    25    26    1
    13    25    27   ar
    14    27    28   ar
    15    28    29    1
    16    28    30   ar
    17     5     6   ar
    18     6     7   ar
    19     7     8    1
    20     8     9    2
    21     8    10   am
    22    10    11    1
    23    11    12   ar
    24    12    13    1
    25    12    14   ar
    26    14    15   ar
    27    15    16   ar
    28    16    17   ar
    29    17     1    1
    30     7     2   ar
    31    17    11   ar
    32    30    23   ar
    33    10    18    1
@<TRIPOS>MOLECULE
*****
 30 33 0 0 0
SMALL
GASTEIGER

@<TRIPOS>ATOM
      1 N          65.3499   92.3337   12.1171 N.pl3   1  UNL1       -0.2567
      2 C          64.1411   91.5173   11.7673 C.ar    1  UNL1        0.1408
      3 N          63.8869   91.5202   10.2891 N.ar    1  UNL1       -0.2290
      4 C          62.7216   90.7612    9.7270 C.ar    1  UNL1        0.0969
      5 C          61.8105   89.9993   10.6433 C.ar    1  UNL1        0.0084
      6 C          62.0647   89.9964   12.1215 C.ar    1  UNL1        0.0055
      7 C          63.2300   90.7554   12.6836 C.ar    1  UNL1        0.0853
      8 C          63.3028   90.6217   14.1758 C.2     1  UNL1        0.2523
      9 O          62.2322   89.7818   14.8070 O.2     1  UNL1       -0.2697
     10 N          64.3045   91.2169   15.1205 N.am    1  UNL1       -0.2784
     11 C          65.4810   92.0927   14.8061 C.ar    1  UNL1        0.0789
     12 C          66.2302   92.4712   16.0492 C.ar    1  UNL1       -0.0041
     13 C          65.7649   91.9742   17.3858 C.3     1  UNL1        0.0325
     14 C          67.4447   93.3466   15.9558 C.ar    1  UNL1        0.0177
     15 C          67.9099   93.8436   14.6193 C.ar    1  UNL1        0.1001
     16 N          67.1607   93.4652   13.3761 N.ar    1  UNL1       -0.2276
     17 C          65.9463   92.5898   13.4695 C.ar    1  UNL1        0.1497
     18 H          64.1724   91.0045   16.0727 H       1  UNL1        0.1552
     19 C          67.2451   92.3091   10.3401 C.3     1  UNL1        0.0237
     20 C          66.0557   92.9793   10.9617 C.3     1  UNL1        0.0984
     21 C          60.6452   89.2402   10.0812 C.3     1  UNL1        0.0899
     22 S          60.3217   87.8705   10.5999 S.3     1  UNL1       -0.1087
     23 C          61.2524   86.7261   10.3273 C.ar    1  UNL1        0.0279
     24 C          61.6069   86.3678    8.9145 C.ar    1  UNL1        0.0209
     25 C          62.5375   85.2235    8.6420 C.ar    1  UNL1        0.0595
     26 C          62.8921   84.8652    7.2291 C.3     1  UNL1        0.0521
     27 N          63.1137   84.4374    9.7822 N.ar    1  UNL1       -0.2539
     28 C          62.7593   84.7957   11.1949 C.ar    1  UNL1        0.0595
     29 C          63.3355   84.0096   12.3352 C.3     1  UNL1        0.0521
     30 C          61.8286   85.9400   11.4675 C.ar    1  UNL1        0.0209
@<TRIPOS>BOND
     1    19    20    1
     2    20     1    1
     3     1     2    1
     4     2     3   ar
     5     3     4   ar
     6     4     5   ar
     7     5    21    1
     8    21    22    1
     9    22    23    1
    10    23    24   ar
    11    24    25   ar
    12    25    26    1
    13    25    27   ar
    14    27    28   ar
    15    28    29    1
    16    28    30   ar
    17     5     6   ar
    18     6     7   ar
    19     7     8    1
    20     8     9    2
    21     8    10   am
    22    10    11    1
    23    11    12   ar
    24    12    13    1
    25    12    14   ar
    26    14    15   ar
    27    15    16   ar
    28    16    17   ar
    29    17     1    1
    30     7     2   ar
    31    17    11   ar
    32    30    23   ar
    33    10    18    1
@<TRIPOS>MOLECULE
*****
 30 33 0 0 0
SMALL
GASTEIGER

@<TRIPOS>ATOM
      1 N          62.5311   85.2792   10.8398 N.pl3   1  UNL1       -0.2567
      2 C          62.6651   86.7591   11.0450 C.ar    1  UNL1        0.1408
      3 N          62.2462   87.5219    9.8233 N.ar    1  UNL1       -0.2290
      4 C          62.3038   89.0208    9.8187 C.ar    1  UNL1        0.0969
      5 C          62.7803   89.7568   11.0357 C.ar    1  UNL1        0.0084
      6 C          63.1992   88.9939   12.2574 C.ar    1  UNL1        0.0055
      7 C          63.1416   87.4951   12.2620 C.ar    1  UNL1        0.0853
      8 C          63.6017   86.9330   13.5744 C.2     1  UNL1        0.2523
      9 O          64.0199   87.9411   14.6034 O.2     1  UNL1       -0.2697
     10 N          63.6991   85.4961   13.9939 N.am    1  UNL1       -0.2784
     11 C          63.3603   84.2664   13.2046 C.ar    1  UNL1        0.0789
     12 C          63.6039   83.0193   14.0016 C.ar    1  UNL1       -0.0041
     13 C          64.1237   83.1158   15.4052 C.3     1  UNL1        0.0325
     14 C          63.3277   81.6755   13.3948 C.ar    1  UNL1        0.0177
     15 C          62.8079   81.5790   11.9911 C.ar    1  UNL1        0.1001
     16 N          62.5643   82.8261   11.1941 N.ar    1  UNL1       -0.2276
     17 C          62.8405   84.1698   11.8008 C.ar    1  UNL1        0.1497
     18 H          64.0290   85.3394   14.9082 H       1  UNL1        0.1552
     19 C          62.9352   84.8638    8.3071 C.3     1  UNL1        0.0237
     20 C          62.0201   84.8522    9.4957 C.3     1  UNL1        0.0984
     21 C          62.8379   91.2557   11.0311 C.3     1  UNL1        0.0899
     22 S          63.5498   91.9823   12.1334 S.3     1  UNL1       -0.1087
     23 C          65.0470   92.0751   12.1258 C.ar    1  UNL1        0.0279
     24 C          65.8130   91.9444   13.4088 C.ar    1  UNL1        0.0209
     25 C          67.3101   92.0371   13.4012 C.ar    1  UNL1        0.0595
     26 C          68.0762   91.9064   14.6843 C.3     1  UNL1        0.0521
     27 N          68.0412   92.2606   12.1107 N.ar    1  UNL1       -0.2539
     28 C          67.2752   92.3914   10.8277 C.ar    1  UNL1        0.0595
     29 C          68.0062   92.6149    9.5371 C.3     1  UNL1        0.0521
     30 C          65.7781   92.2986   10.8353 C.ar    1  UNL1        0.0209
@<TRIPOS>BOND
     1    19    20    1
     2    20     1    1
     3     1     2    1
     4     2     3   ar
     5     3     4   ar
     6     4     5   ar
     7     5    21    1
     8    21    22    1
     9    22    23    1
    10    23    24   ar
    11    24    25   ar
    12    25    26    1
    13    25    27   ar
    14    27    28   ar
    15    28    29    1
    16    28    30   ar
    17     5     6   ar
    18     6     7   ar
    19     7     8    1
    20     8     9    2
    21     8    10   am
    22    10    11    1
    23    11    12   ar
    24    12    13    1
    25    12    14   ar
    26    14    15   ar
    27    15    16   ar
    28    16    17   ar
    29    17     1    1
    30     7     2   ar
    31    17    11   ar
    32    30    23   ar
    33    10    18    1
@<TRIPOS>MOLECULE
*****
 30 33 0 0 0
SMALL
GASTEIGER

@<TRIPOS>ATOM
      1 N          62.4987   85.7952   11.1353 N.pl3   1  UNL1       -0.2567
      2 C          62.7979   87.2396   11.4078 C.ar    1  UNL1        0.1408
      3 N          62.4026   88.1089   10.2511 N.ar    1  UNL1       -0.2290
      4 C          62.6176   89.5918   10.3196 C.ar    1  UNL1        0.0969
      5 C          63.2280   90.2054   11.5447 C.ar    1  UNL1        0.0084
      6 C          63.6233   89.3361   12.7014 C.ar    1  UNL1        0.0055
      7 C          63.4082   87.8532   12.6330 C.ar    1  UNL1        0.0853
      8 C          63.8701   87.1740   13.8881 C.2     1  UNL1        0.2523
      9 O          64.4420   88.0744   14.9427 O.2     1  UNL1       -0.2697
     10 N          63.8358   85.7134   14.2281 N.am    1  UNL1       -0.2784
     11 C          63.3310   84.5713   13.3969 C.ar    1  UNL1        0.0789
     12 C          63.4804   83.2629   14.1150 C.ar    1  UNL1       -0.0041
     13 C          64.0754   83.2265   15.4914 C.3     1  UNL1        0.0325
     14 C          63.0346   81.9909   13.4567 C.ar    1  UNL1        0.0177
     15 C          62.4396   82.0273   12.0803 C.ar    1  UNL1        0.1001
     16 N          62.2902   83.3357   11.3622 N.ar    1  UNL1       -0.2276
     17 C          62.7359   84.6077   12.0204 C.ar    1  UNL1        0.1497
     18 H          64.1916   85.4726   15.1139 H       1  UNL1        0.1552
     19 C          62.7479   85.3745    8.5836 C.3     1  UNL1        0.0237
     20 C          61.8805   85.4992    9.8010 C.3     1  UNL1        0.0984
     21 C          63.4431   91.6884   11.6131 C.3     1  UNL1        0.0899
     22 S          64.8359   92.2426   11.6661 S.3     1  UNL1       -0.1087
     23 C          65.5956   92.2396   12.9595 C.ar    1  UNL1        0.0279
     24 C          67.0951   92.2734   12.9486 C.ar    1  UNL1        0.0209
     25 C          67.8548   92.2704   14.2420 C.ar    1  UNL1        0.0595
     26 C          69.3544   92.3041   14.2312 C.3     1  UNL1        0.0521
     27 N          67.1148   92.2338   15.5463 N.ar    1  UNL1       -0.2539
     28 C          65.6153   92.2000   15.5572 C.ar    1  UNL1        0.0595
     29 C          64.8753   92.1634   16.8615 C.3     1  UNL1        0.0521
     30 C          64.8557   92.2030   14.2638 C.ar    1  UNL1        0.0209
@<TRIPOS>BOND
     1    19    20    1
     2    20     1    1
     3     1     2    1
     4     2     3   ar
     5     3     4   ar
     6     4     5   ar
     7     5    21    1
     8    21    22    1
     9    22    23    1
    10    23    24   ar
    11    24    25   ar
    12    25    26    1
    13    25    27   ar
    14    27    28   ar
    15    28    29    1
    16    28    30   ar
    17     5     6   ar
    18     6     7   ar
    19     7     8    1
    20     8     9    2
    21     8    10   am
    22    10    11    1
    23    11    12   ar
    24    12    13    1
    25    12    14   ar
    26    14    15   ar
    27    15    16   ar
    28    16    17   ar
    29    17     1    1
    30     7     2   ar
    31    17    11   ar
    32    30    23   ar
    33    10    18    1
@<TRIPOS>MOLECULE
*****
 30 33 0 0 0
SMALL
GASTEIGER

@<TRIPOS>ATOM
      1 N          63.4892   85.0812   13.5224 N.pl3   1  UNL1       -0.2567
      2 C          63.2590   86.2971   12.6747 C.ar    1  UNL1        0.1408
      3 N          63.4753   87.5590   13.4562 N.ar    1  UNL1       -0.2290
      4 C          63.2958   88.8921   12.7926 C.ar    1  UNL1        0.0969
      5 C          62.9000   88.9634   11.3475 C.ar    1  UNL1        0.0084
      6 C          62.6836   87.7015   10.5660 C.ar    1  UNL1        0.0055
      7 C          62.8632   86.3683   11.2296 C.ar    1  UNL1        0.0853
      8 C          62.5998   85.2413   10.2754 C.2     1  UNL1        0.2523
      9 O          62.2186   85.6441    8.8817 O.2     1  UNL1       -0.2697
     10 N          62.6671   83.7647   10.5306 N.am    1  UNL1       -0.2784
     11 C          63.0146   83.0504   11.8031 C.ar    1  UNL1        0.0789
     12 C          62.9638   81.5616   11.6272 C.ar    1  UNL1       -0.0041
     13 C          62.5980   80.9757   10.2958 C.3     1  UNL1        0.0325
     14 C          63.2789   80.6587   12.7829 C.ar    1  UNL1        0.0177
     15 C          63.6448   81.2446   14.1143 C.ar    1  UNL1        0.1001
     16 N          63.6955   82.7334   14.2902 N.ar    1  UNL1       -0.2276
     17 C          63.3804   83.6363   13.1346 C.ar    1  UNL1        0.1497
     18 H          62.4553   83.1881    9.7612 H       1  UNL1        0.1552
     19 C          65.2885   85.7413   15.2766 C.3     1  UNL1        0.0237
     20 C          63.8799   85.3451   14.9464 C.3     1  UNL1        0.0984
     21 C          62.7204   90.2966   10.6839 C.3     1  UNL1        0.0899
     22 S          63.1042   91.5527   11.4084 S.3     1  UNL1       -0.1087
     23 C          64.5518   91.8837   11.6205 C.ar    1  UNL1        0.0279
     24 C          65.3910   92.3508   10.4684 C.ar    1  UNL1        0.0209
     25 C          66.8385   92.6818   10.6806 C.ar    1  UNL1        0.0595
     26 C          67.6778   93.1490    9.5284 C.3     1  UNL1        0.0521
     27 N          67.4468   92.5457   12.0450 N.ar    1  UNL1       -0.2539
     28 C          66.6076   92.0786   13.1971 C.ar    1  UNL1        0.0595
     29 C          67.2159   91.9425   14.5614 C.3     1  UNL1        0.0521
     30 C          65.1601   91.7476   12.9849 C.ar    1  UNL1        0.0209
@<TRIPOS>BOND
     1    19    20    1
     2    20     1    1
     3     1     2    1
     4     2     3   ar
     5     3     4   ar
     6     4     5   ar
     7     5    21    1
     8    21    22    1
     9    22    23    1
    10    23    24   ar
    11    24    25   ar
    12    25    26    1
    13    25    27   ar
    14    27    28   ar
    15    28    29    1
    16    28    30   ar
    17     5     6   ar
    18     6     7   ar
    19     7     8    1
    20     8     9    2
    21     8    10   am
    22    10    11    1
    23    11    12   ar
    24    12    13    1
    25    12    14   ar
    26    14    15   ar
    27    15    16   ar
    28    16    17   ar
    29    17     1    1
    30     7     2   ar
    31    17    11   ar
    32    30    23   ar
    33    10    18    1
@<TRIPOS>MOLECULE
*****
 30 33 0 0 0
SMALL
GASTEIGER

@<TRIPOS>ATOM
      1 N          64.6131   91.8368   11.7492 N.pl3   1  UNL1       -0.2567
      2 C          63.8711   90.5336   11.7146 C.ar    1  UNL1        0.1408
      3 N          63.2174   90.3104   10.3831 N.ar    1  UNL1       -0.2290
      4 C          62.4225   89.0623   10.1378 C.ar    1  UNL1        0.0969
      5 C          62.2812   88.0374   11.2239 C.ar    1  UNL1        0.0084
      6 C          62.9349   88.2606   12.5554 C.ar    1  UNL1        0.0055
      7 C          63.7298   89.5088   12.8007 C.ar    1  UNL1        0.0853
      8 C          64.2957   89.5340   14.1897 C.2     1  UNL1        0.2523
      9 O          63.9718   88.3457   15.0460 O.2     1  UNL1       -0.2697
     10 N          65.1425   90.5902   14.8356 N.am    1  UNL1       -0.2784
     11 C          65.6326   91.8822   14.2520 C.ar    1  UNL1        0.0789
     12 C          66.4561   92.6527   15.2410 C.ar    1  UNL1       -0.0041
     13 C          66.6917   92.0980   16.6145 C.3     1  UNL1        0.0325
     14 C          67.0440   93.9781   14.8565 C.ar    1  UNL1        0.0177
     15 C          66.8084   94.5329   13.4830 C.ar    1  UNL1        0.1001
     16 N          65.9849   93.7624   12.4939 N.ar    1  UNL1       -0.2276
     17 C          65.3970   92.4370   12.8784 C.ar    1  UNL1        0.1497
     18 H          65.4122   90.4119   15.7655 H       1  UNL1        0.1552
     19 C          65.8348   93.1606    9.8770 C.3     1  UNL1        0.0237
     20 C          64.5647   92.6470   10.4878 C.3     1  UNL1        0.0984
     21 C          61.4862   86.7892   10.9785 C.3     1  UNL1        0.0899
     22 S          62.1888   85.5040   10.6550 S.3     1  UNL1       -0.1087
     23 C          62.6145   84.5832   11.7599 C.ar    1  UNL1        0.0279
     24 C          62.4976   83.0980   11.5854 C.ar    1  UNL1        0.0209
     25 C          62.9233   82.1773   12.6903 C.ar    1  UNL1        0.0595
     26 C          62.8065   80.6920   12.5159 C.3     1  UNL1        0.0521
     27 N          63.4659   82.7417   13.9698 N.ar    1  UNL1       -0.2539
     28 C          63.5828   84.2269   14.1443 C.ar    1  UNL1        0.0595
     29 C          64.1254   84.7913   15.4238 C.3     1  UNL1        0.0521
     30 C          63.1571   85.1476   13.0394 C.ar    1  UNL1        0.0209
@<TRIPOS>BOND
     1    19    20    1
     2    20     1    1
     3     1     2    1
     4     2     3   ar
     5     3     4   ar
     6     4     5   ar
     7     5    21    1
     8    21    22    1
     9    22    23    1
    10    23    24   ar
    11    24    25   ar
    12    25    26    1
    13    25    27   ar
    14    27    28   ar
    15    28    29    1
    16    28    30   ar
    17     5     6   ar
    18     6     7   ar
    19     7     8    1
    20     8     9    2
    21     8    10   am
    22    10    11    1
    23    11    12   ar
    24    12    13    1
    25    12    14   ar
    26    14    15   ar
    27    15    16   ar
    28    16    17   ar
    29    17     1    1
    30     7     2   ar
    31    17    11   ar
    32    30    23   ar
    33    10    18    1
