@<TRIPOS>MOLECULE
*****
 28 31 0 0 0
SMALL
GASTEIGER

@<TRIPOS>ATOM
      1 C          63.3177   86.7712   13.0516 C.ar    1  UNL1        0.1747
      2 C          62.4901   86.3822   11.8626 C.ar    1  UNL1        0.0592
      3 C          62.0815   87.4213   10.8610 C.ar    1  UNL1        0.0875
      4 C          62.5005   88.8494   11.0483 C.ar    1  UNL1        0.0990
      5 N          63.3281   89.2383   12.2373 N.ar    1  UNL1       -0.2891
      6 C          63.8864   90.5571   12.6835 C.ar    1  UNL1        0.0568
      7 C          63.7201   91.8695   11.9764 C.3     1  UNL1        0.0517
      8 C          64.6400   90.3331   13.9610 C.ar    1  UNL1        0.0730
      9 C          65.3598   91.3822   14.7556 C.3     1  UNL1        0.0534
     10 N          64.5476   88.8759   14.3043 N.ar    1  UNL1       -0.2284
     11 C          63.7367   88.1993   13.2389 C.ar    1  UNL1        0.1818
     12 N          61.2538   87.0324    9.6719 N.ar    1  UNL1       -0.2716
     13 C          59.8924   87.6313    9.4775 C.ar    1  UNL1        0.0830
     14 C          59.0647   87.2424    8.2885 C.ar    1  UNL1        0.0192
     15 C          59.5985   86.2545    7.2939 C.ar    1  UNL1        0.0064
     16 C          60.9599   85.6555    7.4884 C.ar    1  UNL1        0.0611
     17 C          61.7875   86.0445    8.6774 C.ar    1  UNL1        0.2649
     18 O          63.1489   85.4455    8.8718 O.2     1  UNL1       -0.2666
     19 O          63.7264   85.7321   14.0533 O.3     1  UNL1       -0.4676
     20 C          64.3859   84.4657   13.5937 C.3     1  UNL1        0.2315
     21 C          64.5958   82.8992   11.0438 C.3     1  UNL1        0.0308
     22 C          63.6762   82.4365   12.1347 C.ar    1  UNL1       -0.0226
     23 C          62.8614   81.1906   11.9507 C.ar    1  UNL1       -0.0045
     24 C          61.9417   80.7279   13.0417 C.ar    1  UNL1       -0.0007
     25 C          61.8368   81.5112   14.3166 C.ar    1  UNL1       -0.0045
     26 C          62.6515   82.7571   14.5006 C.ar    1  UNL1       -0.0226
     27 C          62.5466   83.5404   15.7755 C.3     1  UNL1        0.0308
     28 C          63.5712   83.2198   13.4096 C.ar    1  UNL1        0.0133
@<TRIPOS>BOND
     1    21    22    1
     2    22    23   ar
     3    23    24   ar
     4    24    25   ar
     5    25    26   ar
     6    26    27    1
     7    26    28   ar
     8    28    20    1
     9    20    19    1
    10    19     1    1
    11     1     2   ar
    12     2     3   ar
    13     3    12    1
    14    12    13   ar
    15    13    14   ar
    16    14    15   ar
    17    15    16   ar
    18    16    17   ar
    19    17    18    2
    20     3     4   ar
    21     4     5   ar
    22     5     6   ar
    23     6     7    1
    24     6     8   ar
    25     8     9    1
    26     8    10   ar
    27    10    11   ar
    28    28    22   ar
    29    11     1   ar
    30    17    12   ar
    31    11     5   ar
@<TRIPOS>MOLECULE
*****
 28 31 0 0 0
SMALL
GASTEIGER

@<TRIPOS>ATOM
      1 C          63.3139   86.7601   13.0389 C.ar    1  UNL1        0.1747
      2 C          62.4895   86.3703   11.8480 C.ar    1  UNL1        0.0592
      3 C          62.0800   87.4094   10.8468 C.ar    1  UNL1        0.0875
      4 C          62.4949   88.8383   11.0365 C.ar    1  UNL1        0.0990
      5 N          63.3193   89.2281   12.2274 N.ar    1  UNL1       -0.2891
      6 C          63.8733   90.5479   12.6762 C.ar    1  UNL1        0.0568
      7 C          63.7049   91.8606   11.9702 C.3     1  UNL1        0.0517
      8 C          64.6251   90.3244   13.9548 C.ar    1  UNL1        0.0730
      9 C          65.3407   91.3745   14.7519 C.3     1  UNL1        0.0534
     10 N          64.5359   88.8665   14.2962 N.ar    1  UNL1       -0.2284
     11 C          63.7288   88.1890   13.2286 C.ar    1  UNL1        0.1818
     12 N          61.2555   87.0196    9.6558 N.ar    1  UNL1       -0.2716
     13 C          59.8930   87.6154    9.4594 C.ar    1  UNL1        0.0830
     14 C          59.0686   87.2256    8.2685 C.ar    1  UNL1        0.0192
     15 C          59.6067   86.2401    7.2738 C.ar    1  UNL1        0.0064
     16 C          60.9692   85.6443    7.4702 C.ar    1  UNL1        0.0611
     17 C          61.7936   86.0341    8.6612 C.ar    1  UNL1        0.2649
     18 O          63.1562   85.4384    8.8576 O.2     1  UNL1       -0.2666
     19 O          63.7234   85.7209   14.0402 O.3     1  UNL1       -0.4676
     20 C          64.3808   84.4537   13.5798 C.3     1  UNL1        0.2315
     21 C          62.5544   83.5492   15.7812 C.3     1  UNL1        0.0308
     22 C          62.6543   82.7521   14.5144 C.ar    1  UNL1       -0.0226
     23 C          61.8409   81.5027   14.3483 C.ar    1  UNL1       -0.0045
     24 C          61.9408   80.7056   13.0816 C.ar    1  UNL1       -0.0007
     25 C          62.8540   81.1579   11.9809 C.ar    1  UNL1       -0.0045
     26 C          63.6673   82.4072   12.1470 C.ar    1  UNL1       -0.0226
     27 C          64.5805   82.8595   11.0463 C.3     1  UNL1        0.0308
     28 C          63.5674   83.2044   13.4137 C.ar    1  UNL1        0.0133
@<TRIPOS>BOND
     1    21    22    1
     2    22    23   ar
     3    23    24   ar
     4    24    25   ar
     5    25    26   ar
     6    26    27    1
     7    26    28   ar
     8    28    20    1
     9    20    19    1
    10    19     1    1
    11     1     2   ar
    12     2     3   ar
    13     3    12    1
    14    12    13   ar
    15    13    14   ar
    16    14    15   ar
    17    15    16   ar
    18    16    17   ar
    19    17    18    2
    20     3     4   ar
    21     4     5   ar
    22     5     6   ar
    23     6     7    1
    24     6     8   ar
    25     8     9    1
    26     8    10   ar
    27    10    11   ar
    28    28    22   ar
    29    11     1   ar
    30    17    12   ar
    31    11     5   ar
@<TRIPOS>MOLECULE
*****
 28 31 0 0 0
SMALL
GASTEIGER

@<TRIPOS>ATOM
      1 C          63.6508   87.1863   13.6234 C.ar    1  UNL1        0.1747
      2 C          64.3750   88.2548   14.3873 C.ar    1  UNL1        0.0592
      3 C          64.3629   89.6704   13.8914 C.ar    1  UNL1        0.0875
      4 C          63.6265   90.0174   12.6315 C.ar    1  UNL1        0.0990
      5 N          62.9023   88.9489   11.8676 N.ar    1  UNL1       -0.2891
      6 C          62.0965   88.9901   10.6031 C.ar    1  UNL1        0.0568
      7 C          61.8243   90.2077    9.7704 C.3     1  UNL1        0.0517
      8 C          61.6106   87.6000   10.3175 C.ar    1  UNL1        0.0730
      9 C          60.7672   87.1835    9.1490 C.3     1  UNL1        0.0534
     10 N          62.1161   86.6996   11.4055 N.ar    1  UNL1       -0.2284
     11 C          62.9144   87.5333   12.3635 C.ar    1  UNL1        0.1818
     12 N          65.0872   90.7390   14.6554 N.ar    1  UNL1       -0.2716
     13 C          66.4250   91.2241   14.1810 C.ar    1  UNL1        0.0830
     14 C          67.1493   92.2927   14.9449 C.ar    1  UNL1        0.0192
     15 C          66.5358   92.8762   16.1832 C.ar    1  UNL1        0.0064
     16 C          65.1980   92.3911   16.6575 C.ar    1  UNL1        0.0611
     17 C          64.4737   91.3224   15.8936 C.ar    1  UNL1        0.2649
     18 O          63.1359   90.8373   16.3679 O.2     1  UNL1       -0.2666
     19 O          63.6629   85.7707   14.1193 O.3     1  UNL1       -0.4676
     20 C          64.2337   84.6804   13.2617 C.3     1  UNL1        0.2315
     21 C          64.3819   83.0717   10.7338 C.3     1  UNL1        0.0308
     22 C          63.6142   82.5488   11.9116 C.ar    1  UNL1       -0.0226
     23 C          62.9206   81.2216   11.8255 C.ar    1  UNL1       -0.0045
     24 C          62.1530   80.6987   13.0033 C.ar    1  UNL1       -0.0007
     25 C          62.0788   81.5031   14.2672 C.ar    1  UNL1       -0.0045
     26 C          62.7724   82.8303   14.3534 C.ar    1  UNL1       -0.0226
     27 C          62.6983   83.6346   15.6173 C.3     1  UNL1        0.0308
     28 C          63.5401   83.3532   13.1755 C.ar    1  UNL1        0.0133
@<TRIPOS>BOND
     1    21    22    1
     2    22    23   ar
     3    23    24   ar
     4    24    25   ar
     5    25    26   ar
     6    26    27    1
     7    26    28   ar
     8    28    20    1
     9    20    19    1
    10    19     1    1
    11     1     2   ar
    12     2     3   ar
    13     3    12    1
    14    12    13   ar
    15    13    14   ar
    16    14    15   ar
    17    15    16   ar
    18    16    17   ar
    19    17    18    2
    20     3     4   ar
    21     4     5   ar
    22     5     6   ar
    23     6     7    1
    24     6     8   ar
    25     8     9    1
    26     8    10   ar
    27    10    11   ar
    28    28    22   ar
    29    11     1   ar
    30    17    12   ar
    31    11     5   ar
@<TRIPOS>MOLECULE
*****
 28 31 0 0 0
SMALL
GASTEIGER

@<TRIPOS>ATOM
      1 C          62.1254   88.4366   11.3926 C.ar    1  UNL1        0.1747
      2 C          62.6504   87.2075   12.0733 C.ar    1  UNL1        0.0592
      3 C          62.3628   85.8517   11.4996 C.ar    1  UNL1        0.0875
      4 C          61.5502   85.7251   10.2452 C.ar    1  UNL1        0.0990
      5 N          61.0252   86.9543    9.5644 N.ar    1  UNL1       -0.2891
      6 C          60.2018   87.1408    8.3246 C.ar    1  UNL1        0.0568
      7 C          59.6897   86.0481    7.4337 C.3     1  UNL1        0.0517
      8 C          59.9805   88.6118    8.1320 C.ar    1  UNL1        0.0730
      9 C          59.2082   89.2484    7.0146 C.3     1  UNL1        0.0534
     10 N          60.6671   89.3345    9.2528 N.ar    1  UNL1       -0.2284
     11 C          61.3128   88.3100   10.1381 C.ar    1  UNL1        0.1818
     12 N          62.8879   84.6225   12.1804 N.ar    1  UNL1       -0.2716
     13 C          62.6574   84.4222   13.6490 C.ar    1  UNL1        0.0830
     14 C          63.1824   83.1930   14.3297 C.ar    1  UNL1        0.0192
     15 C          63.9379   82.1640   13.5419 C.ar    1  UNL1        0.0064
     16 C          64.1683   82.3643   12.0733 C.ar    1  UNL1        0.0611
     17 C          63.6433   83.5936   11.3925 C.ar    1  UNL1        0.2649
     18 O          63.8737   83.7939    9.9239 O.2     1  UNL1       -0.2666
     19 O          62.4130   89.7925   11.9663 O.3     1  UNL1       -0.4676
     20 C          63.6814   90.0296   12.7310 C.3     1  UNL1        0.2315
     21 C          63.4921   91.3933   10.0655 C.3     1  UNL1        0.0308
     22 C          64.4136   91.9316   11.1196 C.ar    1  UNL1       -0.0226
     23 C          65.2404   93.1517   10.8410 C.ar    1  UNL1       -0.0045
     24 C          66.1619   93.6900   11.8951 C.ar    1  UNL1       -0.0007
     25 C          66.2565   93.0082   13.2278 C.ar    1  UNL1       -0.0045
     26 C          65.4298   91.7881   13.5065 C.ar    1  UNL1       -0.0226
     27 C          65.5244   91.1062   14.8392 C.3     1  UNL1        0.0308
     28 C          64.5082   91.2497   12.4523 C.ar    1  UNL1        0.0133
@<TRIPOS>BOND
     1    21    22    1
     2    22    23   ar
     3    23    24   ar
     4    24    25   ar
     5    25    26   ar
     6    26    27    1
     7    26    28   ar
     8    28    20    1
     9    20    19    1
    10    19     1    1
    11     1     2   ar
    12     2     3   ar
    13     3    12    1
    14    12    13   ar
    15    13    14   ar
    16    14    15   ar
    17    15    16   ar
    18    16    17   ar
    19    17    18    2
    20     3     4   ar
    21     4     5   ar
    22     5     6   ar
    23     6     7    1
    24     6     8   ar
    25     8     9    1
    26     8    10   ar
    27    10    11   ar
    28    28    22   ar
    29    11     1   ar
    30    17    12   ar
    31    11     5   ar
@<TRIPOS>MOLECULE
*****
 28 31 0 0 0
SMALL
GASTEIGER

@<TRIPOS>ATOM
      1 C          63.2225   87.9158   12.5699 C.ar    1  UNL1        0.1747
      2 C          62.3748   88.2037   11.3664 C.ar    1  UNL1        0.0592
      3 C          61.6698   87.0837   10.6603 C.ar    1  UNL1        0.0875
      4 C          61.8126   85.6758   11.1577 C.ar    1  UNL1        0.0990
      5 N          62.6603   85.3879   12.3612 N.ar    1  UNL1       -0.2891
      6 C          62.9864   84.1106   13.0769 C.ar    1  UNL1        0.0568
      7 C          62.4926   82.7429   12.7088 C.3     1  UNL1        0.0517
      8 C          63.8929   84.4412   14.2254 C.ar    1  UNL1        0.0730
      9 C          64.4648   83.4620   15.2074 C.3     1  UNL1        0.0534
     10 N          64.1271   85.9228   14.2195 N.ar    1  UNL1       -0.2284
     11 C          63.3653   86.5078   13.0673 C.ar    1  UNL1        0.1818
     12 N          60.8220   87.3716    9.4568 N.ar    1  UNL1       -0.2716
     13 C          60.4299   86.2578    8.5318 C.ar    1  UNL1        0.0830
     14 C          59.5822   86.5456    7.3283 C.ar    1  UNL1        0.0192
     15 C          59.1265   87.9474    7.0498 C.ar    1  UNL1        0.0064
     16 C          59.5186   89.0612    7.9747 C.ar    1  UNL1        0.0611
     17 C          60.3664   88.7733    9.1783 C.ar    1  UNL1        0.2649
     18 O          60.7585   89.8872   10.1032 O.2     1  UNL1       -0.2666
     19 O          63.9276   89.0358   13.2761 O.3     1  UNL1       -0.4676
     20 C          63.5065   90.4556   13.0377 C.3     1  UNL1        0.2315
     21 C          65.5628   91.5021   14.9550 C.3     1  UNL1        0.0308
     22 C          65.5406   91.9926   13.5377 C.ar    1  UNL1       -0.0226
     23 C          66.5465   93.0063   13.0790 C.ar    1  UNL1       -0.0045
     24 C          66.5243   93.4968   11.6616 C.ar    1  UNL1       -0.0007
     25 C          65.4961   92.9735   10.7030 C.ar    1  UNL1       -0.0045
     26 C          64.4901   91.9598   11.1616 C.ar    1  UNL1       -0.0226
     27 C          63.4620   91.4366   10.2030 C.3     1  UNL1        0.0308
     28 C          64.5124   91.4693   12.5790 C.ar    1  UNL1        0.0133
@<TRIPOS>BOND
     1    21    22    1
     2    22    23   ar
     3    23    24   ar
     4    24    25   ar
     5    25    26   ar
     6    26    27    1
     7    26    28   ar
     8    28    20    1
     9    20    19    1
    10    19     1    1
    11     1     2   ar
    12     2     3   ar
    13     3    12    1
    14    12    13   ar
    15    13    14   ar
    16    14    15   ar
    17    15    16   ar
    18    16    17   ar
    19    17    18    2
    20     3     4   ar
    21     4     5   ar
    22     5     6   ar
    23     6     7    1
    24     6     8   ar
    25     8     9    1
    26     8    10   ar
    27    10    11   ar
    28    28    22   ar
    29    11     1   ar
    30    17    12   ar
    31    11     5   ar
@<TRIPOS>MOLECULE
*****
 28 31 0 0 0
SMALL
GASTEIGER

@<TRIPOS>ATOM
      1 C          63.2239   87.9108   12.5680 C.ar    1  UNL1        0.1747
      2 C          62.3775   88.1982   11.3635 C.ar    1  UNL1        0.0592
      3 C          61.6712   87.0783   10.6587 C.ar    1  UNL1        0.0875
      4 C          61.8114   85.6709   11.1584 C.ar    1  UNL1        0.0990
      5 N          62.6578   85.3835   12.3629 N.ar    1  UNL1       -0.2891
      6 C          62.9813   84.1069   13.0809 C.ar    1  UNL1        0.0568
      7 C          62.4856   82.7394   12.7146 C.3     1  UNL1        0.0517
      8 C          63.8876   84.4378   14.2295 C.ar    1  UNL1        0.0730
      9 C          64.4572   83.4593   15.2134 C.3     1  UNL1        0.0534
     10 N          64.1241   85.9190   14.2214 N.ar    1  UNL1       -0.2284
     11 C          63.3641   86.5035   13.0677 C.ar    1  UNL1        0.1818
     12 N          60.8248   87.3656    9.4541 N.ar    1  UNL1       -0.2716
     13 C          60.4374   86.2521    8.5267 C.ar    1  UNL1        0.0830
     14 C          59.5910   86.5394    7.3222 C.ar    1  UNL1        0.0192
     15 C          59.1318   87.9403    7.0450 C.ar    1  UNL1        0.0064
     16 C          59.5192   89.0538    7.9724 C.ar    1  UNL1        0.0611
     17 C          60.3657   88.7665    9.1769 C.ar    1  UNL1        0.2649
     18 O          60.7530   89.8800   10.1043 O.2     1  UNL1       -0.2666
     19 O          63.9303   89.0308   13.2729 O.3     1  UNL1       -0.4676
     20 C          63.5050   90.4502   13.0397 C.3     1  UNL1        0.2315
     21 C          63.4548   91.4341   10.2061 C.3     1  UNL1        0.0308
     22 C          64.4821   91.9597   11.1644 C.ar    1  UNL1       -0.0226
     23 C          65.4844   92.9772   10.7059 C.ar    1  UNL1       -0.0045
     24 C          66.5117   93.5027   11.6642 C.ar    1  UNL1       -0.0007
     25 C          66.5368   93.0108   13.0811 C.ar    1  UNL1       -0.0045
     26 C          65.5346   91.9933   13.5395 C.ar    1  UNL1       -0.0226
     27 C          65.5597   91.5014   14.9564 C.3     1  UNL1        0.0308
     28 C          64.5072   91.4677   12.5812 C.ar    1  UNL1        0.0133
@<TRIPOS>BOND
     1    21    22    1
     2    22    23   ar
     3    23    24   ar
     4    24    25   ar
     5    25    26   ar
     6    26    27    1
     7    26    28   ar
     8    28    20    1
     9    20    19    1
    10    19     1    1
    11     1     2   ar
    12     2     3   ar
    13     3    12    1
    14    12    13   ar
    15    13    14   ar
    16    14    15   ar
    17    15    16   ar
    18    16    17   ar
    19    17    18    2
    20     3     4   ar
    21     4     5   ar
    22     5     6   ar
    23     6     7    1
    24     6     8   ar
    25     8     9    1
    26     8    10   ar
    27    10    11   ar
    28    28    22   ar
    29    11     1   ar
    30    17    12   ar
    31    11     5   ar
@<TRIPOS>MOLECULE
*****
 28 31 0 0 0
SMALL
GASTEIGER

@<TRIPOS>ATOM
      1 C          62.2064   87.2979   11.6856 C.ar    1  UNL1        0.1747
      2 C          63.0939   88.4314   12.1068 C.ar    1  UNL1        0.0592
      3 C          63.0845   89.7178   11.3354 C.ar    1  UNL1        0.0875
      4 C          62.1875   89.8707   10.1429 C.ar    1  UNL1        0.0990
      5 N          61.3000   88.7372    9.7217 N.ar    1  UNL1       -0.2891
      6 C          60.3173   88.5962    8.5973 C.ar    1  UNL1        0.0568
      7 C          59.9900   89.6447    7.5758 C.3     1  UNL1        0.0517
      8 C          59.7193   87.2226    8.6737 C.ar    1  UNL1        0.0730
      9 C          58.6891   86.6564    7.7420 C.3     1  UNL1        0.0534
     10 N          60.3325   86.5147    9.8454 N.ar    1  UNL1       -0.2284
     11 C          61.3094   87.4508   10.4931 C.ar    1  UNL1        0.1818
     12 N          63.9720   90.8514   11.7566 N.ar    1  UNL1       -0.2716
     13 C          64.4434   91.8514   10.7428 C.ar    1  UNL1        0.0830
     14 C          65.3308   92.9850   11.1639 C.ar    1  UNL1        0.0192
     15 C          65.7470   93.1185   12.5989 C.ar    1  UNL1        0.0064
     16 C          65.2757   92.1185   13.6127 C.ar    1  UNL1        0.0611
     17 C          64.3881   90.9849   13.1915 C.ar    1  UNL1        0.2649
     18 O          63.9168   89.9849   14.2053 O.2     1  UNL1       -0.2666
     19 O          62.2157   86.0114   12.4570 O.3     1  UNL1       -0.4676
     20 C          63.3803   85.0736   12.3372 C.3     1  UNL1        0.2315
     21 C          63.8971   83.4261    9.8839 C.3     1  UNL1        0.0308
     22 C          63.4140   82.7671   11.1418 C.ar    1  UNL1       -0.0226
     23 C          63.1892   81.2843   11.1731 C.ar    1  UNL1       -0.0045
     24 C          62.7060   80.6254   12.4309 C.ar    1  UNL1       -0.0007
     25 C          62.4476   81.4491   13.6576 C.ar    1  UNL1       -0.0045
     26 C          62.6723   82.9318   13.6264 C.ar    1  UNL1       -0.0226
     27 C          62.4139   83.7556   14.8530 C.3     1  UNL1        0.0308
     28 C          63.1555   83.5909   12.3684 C.ar    1  UNL1        0.0133
@<TRIPOS>BOND
     1    21    22    1
     2    22    23   ar
     3    23    24   ar
     4    24    25   ar
     5    25    26   ar
     6    26    27    1
     7    26    28   ar
     8    28    20    1
     9    20    19    1
    10    19     1    1
    11     1     2   ar
    12     2     3   ar
    13     3    12    1
    14    12    13   ar
    15    13    14   ar
    16    14    15   ar
    17    15    16   ar
    18    16    17   ar
    19    17    18    2
    20     3     4   ar
    21     4     5   ar
    22     5     6   ar
    23     6     7    1
    24     6     8   ar
    25     8     9    1
    26     8    10   ar
    27    10    11   ar
    28    28    22   ar
    29    11     1   ar
    30    17    12   ar
    31    11     5   ar
@<TRIPOS>MOLECULE
*****
 28 31 0 0 0
SMALL
GASTEIGER

@<TRIPOS>ATOM
      1 C          62.3275   86.3498   11.0247 C.ar    1  UNL1        0.1747
      2 C          63.1048   87.2581   11.9305 C.ar    1  UNL1        0.0592
      3 C          62.9233   88.7442   11.8380 C.ar    1  UNL1        0.0875
      4 C          61.9645   89.3220   10.8396 C.ar    1  UNL1        0.0990
      5 N          61.1871   88.4137    9.9338 N.ar    1  UNL1       -0.2891
      6 C          60.1777   88.6913    8.8596 C.ar    1  UNL1        0.0568
      7 C          59.6953   90.0457    8.4319 C.3     1  UNL1        0.0517
      8 C          59.7353   87.3769    8.2882 C.ar    1  UNL1        0.0730
      9 C          58.7328   87.1860    7.1887 C.3     1  UNL1        0.0534
     10 N          60.4713   86.2868    9.0092 N.ar    1  UNL1       -0.2284
     11 C          61.3686   86.9276   10.0263 C.ar    1  UNL1        0.1818
     12 N          63.7007   89.6526   12.7439 N.ar    1  UNL1       -0.2716
     13 C          64.0724   91.0313   12.2844 C.ar    1  UNL1        0.0830
     14 C          64.8497   91.9396   13.1902 C.ar    1  UNL1        0.0192
     15 C          65.2554   91.4694   14.5556 C.ar    1  UNL1        0.0064
     16 C          64.8838   90.0907   15.0151 C.ar    1  UNL1        0.0611
     17 C          64.1064   89.1823   14.1092 C.ar    1  UNL1        0.2649
     18 O          63.7348   87.8036   14.5688 O.2     1  UNL1       -0.2666
     19 O          62.5089   84.8637   11.1172 O.3     1  UNL1       -0.4676
     20 C          63.2092   84.2659   12.3014 C.3     1  UNL1        0.2315
     21 C          62.0716   83.7829   15.0350 C.3     1  UNL1        0.0308
     22 C          62.3117   82.6285   14.1079 C.ar    1  UNL1       -0.0226
     23 C          61.9831   81.2324   14.5475 C.ar    1  UNL1       -0.0045
     24 C          62.2232   80.0780   13.6204 C.ar    1  UNL1       -0.0007
     25 C          62.7920   80.3195   12.2536 C.ar    1  UNL1       -0.0045
     26 C          63.1206   81.7155   11.8139 C.ar    1  UNL1       -0.0226
     27 C          63.6894   81.9570   10.4471 C.3     1  UNL1        0.0308
     28 C          62.8805   82.8700   12.7410 C.ar    1  UNL1        0.0133
@<TRIPOS>BOND
     1    21    22    1
     2    22    23   ar
     3    23    24   ar
     4    24    25   ar
     5    25    26   ar
     6    26    27    1
     7    26    28   ar
     8    28    20    1
     9    20    19    1
    10    19     1    1
    11     1     2   ar
    12     2     3   ar
    13     3    12    1
    14    12    13   ar
    15    13    14   ar
    16    14    15   ar
    17    15    16   ar
    18    16    17   ar
    19    17    18    2
    20     3     4   ar
    21     4     5   ar
    22     5     6   ar
    23     6     7    1
    24     6     8   ar
    25     8     9    1
    26     8    10   ar
    27    10    11   ar
    28    28    22   ar
    29    11     1   ar
    30    17    12   ar
    31    11     5   ar
@<TRIPOS>MOLECULE
*****
 28 31 0 0 0
SMALL
GASTEIGER

@<TRIPOS>ATOM
      1 C          63.1489   88.6463   11.9417 C.ar    1  UNL1        0.1747
      2 C          62.3599   88.3272   10.7066 C.ar    1  UNL1        0.0592
      3 C          61.8805   86.9267   10.4638 C.ar    1  UNL1        0.0875
      4 C          62.1902   85.8454   11.4563 C.ar    1  UNL1        0.0990
      5 N          62.9791   86.1646   12.6914 N.ar    1  UNL1       -0.2891
      6 C          63.4343   85.3133   13.8395 C.ar    1  UNL1        0.0568
      7 C          63.1744   83.8455   14.0061 C.3     1  UNL1        0.0517
      8 C          64.1949   86.1877   14.7919 C.ar    1  UNL1        0.0730
      9 C          64.8292   85.7476   16.0780 C.3     1  UNL1        0.0534
     10 N          64.2099   87.5793   14.2323 N.ar    1  UNL1       -0.2284
     11 C          63.4585   87.5650   12.9341 C.ar    1  UNL1        0.1818
     12 N          61.0915   86.6075    9.2286 N.ar    1  UNL1       -0.2716
     13 C          59.7048   87.1547    9.0623 C.ar    1  UNL1        0.0830
     14 C          58.9158   86.8356    7.8272 C.ar    1  UNL1        0.0192
     15 C          59.5134   85.9692    6.7584 C.ar    1  UNL1        0.0064
     16 C          60.9001   85.4220    6.9247 C.ar    1  UNL1        0.0611
     17 C          61.6891   85.7412    8.1599 C.ar    1  UNL1        0.2649
     18 O          63.0758   85.1940    8.3263 O.2     1  UNL1       -0.2666
     19 O          63.6282   90.0468   12.1845 O.3     1  UNL1       -0.4676
     20 C          63.4553   90.6751   13.5355 C.3     1  UNL1        0.2315
     21 C          65.3336   92.1855   11.7493 C.3     1  UNL1        0.0308
     22 C          65.5041   92.2448   13.2384 C.ar    1  UNL1       -0.0226
     23 C          66.6138   93.0593   13.8344 C.ar    1  UNL1       -0.0045
     24 C          66.7842   93.1186   15.3235 C.ar    1  UNL1       -0.0007
     25 C          65.8451   92.3634   16.2166 C.ar    1  UNL1       -0.0045
     26 C          64.7354   91.5489   15.6206 C.ar    1  UNL1       -0.0226
     27 C          63.7963   90.7937   16.5137 C.3     1  UNL1        0.0308
     28 C          64.5649   91.4896   14.1315 C.ar    1  UNL1        0.0133
@<TRIPOS>BOND
     1    21    22    1
     2    22    23   ar
     3    23    24   ar
     4    24    25   ar
     5    25    26   ar
     6    26    27    1
     7    26    28   ar
     8    28    20    1
     9    20    19    1
    10    19     1    1
    11     1     2   ar
    12     2     3   ar
    13     3    12    1
    14    12    13   ar
    15    13    14   ar
    16    14    15   ar
    17    15    16   ar
    18    16    17   ar
    19    17    18    2
    20     3     4   ar
    21     4     5   ar
    22     5     6   ar
    23     6     7    1
    24     6     8   ar
    25     8     9    1
    26     8    10   ar
    27    10    11   ar
    28    28    22   ar
    29    11     1   ar
    30    17    12   ar
    31    11     5   ar
