@<TRIPOS>MOLECULE
*****
 67 73 0 0 0
SMALL
GASTEIGER

@<TRIPOS>ATOM
      1 N          65.3018   89.2824   14.5783 N.3     1  UNL1       -0.1862
      2 C          65.5177   88.0231   15.3641 C.3     1  UNL1        0.1775
      3 C          64.7555   86.7799   15.0128 C.2     1  UNL1        0.2452
      4 O          64.9714   85.5205   15.7987 O.2     1  UNL1       -0.2732
      5 N          63.7773   86.7960   13.8758 N.am    1  UNL1       -0.2541
      6 C          63.0150   85.5528   13.5246 C.3     1  UNL1        0.1577
      7 C          62.0368   85.5689   12.3875 C.2     1  UNL1        0.2445
      8 O          61.2746   84.3257   12.0363 O.2     1  UNL1       -0.2731
      9 N          61.8209   86.8282   11.6017 N.am    1  UNL1       -0.2705
     10 C          62.5832   88.0714   11.9530 C.3     1  UNL1        0.1359
     11 C          63.5614   88.0553   13.0900 C.3     1  UNL1        0.1908
     12 N          64.3236   89.2985   13.4413 N.am    1  UNL1       -0.1863
     13 C          64.1077   90.5579   12.6555 C.2     1  UNL1        0.3191
     14 O          63.1295   90.5739   11.5184 O.2     1  UNL1       -0.2512
     15 N          64.8700   91.8011   13.0067 N.am    1  UNL1       -0.2836
     16 H          65.5120   91.7905   13.7530 H       1  UNL1        0.1513
     17 C          60.8427   86.8443   10.4647 C.3     1  UNL1        0.1217
     18 C          60.4259   88.1487    9.8523 C.ar    1  UNL1        0.0135
     19 C          60.1410   89.3319   10.7292 C.ar    1  UNL1       -0.0012
     20 C          59.7242   90.6362   10.1169 C.ar    1  UNL1       -0.0002
     21 C          59.5922   90.7573    8.6277 C.ar    1  UNL1        0.0016
     22 C          59.8771   89.5742    7.7508 C.ar    1  UNL1        0.0214
     23 C          59.8323   89.3941    6.2623 C.ar    1  UNL1        0.0722
     24 C          60.2214   87.9785    5.9547 C.ar    1  UNL1        0.0805
     25 N          60.5067   87.2837    7.2530 N.ar    1  UNL1       -0.3241
     26 C          60.9304   85.8537    7.4133 C.3     1  UNL1        0.1305
     27 C          60.2939   88.2699    8.3631 C.ar    1  UNL1        0.0577
     28 C          59.4631   90.4452    5.2577 C.2     1  UNL1        0.2510
     29 O          58.0220   90.7968    5.0352 O.2     1  UNL1       -0.2698
     30 N          60.5351   91.1447    4.4757 N.am    1  UNL1       -0.2791
     31 H          61.4810   90.9139    4.6218 H       1  UNL1        0.1552
     32 C          60.1660   92.1957    3.4712 C.ar    1  UNL1        0.0701
     33 C          59.8184   91.8012    2.0664 C.ar    1  UNL1        0.0191
     34 C          59.4493   92.8522    1.0618 C.ar    1  UNL1        0.0354
     35 C          59.4279   94.2976    1.4620 C.ar    1  UNL1        0.1286
     36 N          59.7756   94.6921    2.8669 N.ar    1  UNL1       -0.2281
     37 C          60.1446   93.6411    3.8714 C.ar    1  UNL1        0.1149
     38 N          59.0588   95.3487    0.4575 N.pl3   1  UNL1       -0.3169
     39 H          58.1720   95.7746    0.4940 H       1  UNL1        0.1482
     40 C          60.0410   95.7507   -0.6026 C.3     1  UNL1        0.1057
     41 C          61.4193   96.1994   -0.2169 C.3     1  UNL1        0.0935
     42 N          62.5620   95.2285   -0.2542 N.3     1  UNL1       -0.2738
     43 C          63.2905   94.8788    1.0096 C.3     1  UNL1        0.0576
     44 C          64.1924   95.8864    1.6587 C.3     1  UNL1        0.0173
     45 C          63.1171   93.5216    1.6242 C.3     1  UNL1        0.0173
     46 C          62.9763   94.6073   -1.5551 C.3     1  UNL1        0.0576
     47 C          64.1688   95.1387   -2.2938 C.3     1  UNL1        0.0173
     48 C          62.1981   93.4548   -2.1173 C.3     1  UNL1        0.0173
     49 C          63.2309   84.2935   14.3103 C.3     1  UNL1        0.0556
     50 C          63.0778   82.9582   13.6442 C.ar    1  UNL1       -0.0198
     51 C          62.1419   81.9364   14.2186 C.ar    1  UNL1       -0.0011
     52 C          61.9888   80.6012   13.5525 C.ar    1  UNL1        0.0363
     53 C          62.7716   80.2878   12.3120 C.ar    1  UNL1        0.1337
     54 O          62.6185   78.9525   11.6459 O.3     1  UNL1       -0.5055
     55 C          63.7076   81.3096   11.7375 C.ar    1  UNL1        0.0363
     56 C          63.8607   82.6448   12.4036 C.ar    1  UNL1       -0.0011
     57 H          62.0338   78.3143   12.0047 H       1  UNL1        0.2922
     58 C          64.6540   93.0604   12.2209 C.3     1  UNL1        0.1177
     59 C          65.6931   93.5211   11.2421 C.ar    1  UNL1       -0.0025
     60 C          66.6523   92.5338   10.6463 C.ar    1  UNL1       -0.0026
     61 C          67.6913   92.9945    9.6674 C.ar    1  UNL1       -0.0003
     62 C          67.7712   94.4426    9.2844 C.ar    1  UNL1       -0.0000
     63 C          66.8119   95.4300    9.8803 C.ar    1  UNL1       -0.0003
     64 C          65.7729   94.9692   10.8591 C.ar    1  UNL1       -0.0026
     65 C          66.0641   90.5256   14.9296 C.3     1  UNL1        0.1188
     66 C          68.0728   92.1206   14.5161 C.2     1  UNL1       -0.0034
     67 C          67.3651   90.8259   14.2461 C.2     1  UNL1       -0.0071
@<TRIPOS>BOND
     1    66    67    2
     2    67    65    1
     3    65     1    1
     4     1     2    1
     5     2     3    1
     6     3     4    2
     7     3     5   am
     8     5     6    1
     9     6    49    1
    10    49    50    1
    11    50    51   ar
    12    51    52   ar
    13    52    53   ar
    14    53    54    1
    15    53    55   ar
    16    55    56   ar
    17     6     7    1
    18     7     8    2
    19     7     9   am
    20     9    17    1
    21    17    18    1
    22    18    19   ar
    23    19    20   ar
    24    20    21   ar
    25    21    22   ar
    26    22    23   ar
    27    23    28    1
    28    28    29    2
    29    28    30   am
    30    30    32    1
    31    32    33   ar
    32    33    34   ar
    33    34    35   ar
    34    35    38    1
    35    38    40    1
    36    40    41    1
    37    41    42    1
    38    42    43    1
    39    43    44    1
    40    43    45    1
    41    42    46    1
    42    46    47    1
    43    46    48    1
    44    35    36   ar
    45    36    37   ar
    46    23    24   ar
    47    24    25   ar
    48    25    26    1
    49    25    27   ar
    50     9    10    1
    51    10    11    1
    52    11    12    1
    53    12    13   am
    54    13    14    2
    55    13    15   am
    56    15    58    1
    57    58    59    1
    58    59    60   ar
    59    60    61   ar
    60    61    62   ar
    61    62    63   ar
    62    63    64   ar
    63    12     1    1
    64    64    59   ar
    65    11     5    1
    66    56    50   ar
    67    27    18   ar
    68    27    22   ar
    69    37    32   ar
    70    54    57    1
    71    30    31    1
    72    38    39    1
    73    15    16    1
@<TRIPOS>MOLECULE
*****
 67 73 0 0 0
SMALL
GASTEIGER

@<TRIPOS>ATOM
      1 N          65.3321   89.1230   14.5431 N.3     1  UNL1       -0.1862
      2 C          65.5286   87.8538   15.3179 C.3     1  UNL1        0.1775
      3 C          64.7412   86.6279   14.9614 C.2     1  UNL1        0.2452
      4 O          64.9377   85.3586   15.7363 O.2     1  UNL1       -0.2732
      5 N          63.7574   86.6712   13.8300 N.am    1  UNL1       -0.2541
      6 C          62.9700   85.4452   13.4735 C.3     1  UNL1        0.1577
      7 C          61.9861   85.4885   12.3421 C.2     1  UNL1        0.2445
      8 O          61.1988   84.2626   11.9855 O.2     1  UNL1       -0.2731
      9 N          61.7896   86.7578   11.5671 N.am    1  UNL1       -0.2705
     10 C          62.5770   87.9837   11.9237 C.3     1  UNL1        0.1359
     11 C          63.5609   87.9404   13.0551 C.3     1  UNL1        0.1908
     12 N          64.3483   89.1663   13.4117 N.am    1  UNL1       -0.1863
     13 C          64.1518   90.4356   12.6367 C.2     1  UNL1        0.3191
     14 O          63.1679   90.4788   11.5053 O.2     1  UNL1       -0.2512
     15 N          64.9391   91.6615   12.9933 N.am    1  UNL1       -0.2836
     16 H          65.5849   91.6331   13.7359 H       1  UNL1        0.1513
     17 C          60.8058   86.8010   10.4357 C.3     1  UNL1        0.1217
     18 C          60.4069   88.1180    9.8386 C.ar    1  UNL1        0.0135
     19 C          60.1572   89.2999   10.7279 C.ar    1  UNL1       -0.0012
     20 C          59.7583   90.6168   10.1309 C.ar    1  UNL1       -0.0002
     21 C          59.6091   90.7519    8.6445 C.ar    1  UNL1        0.0016
     22 C          59.8588   89.5701    7.7551 C.ar    1  UNL1        0.0214
     23 C          59.7907   89.4023    6.2661 C.ar    1  UNL1        0.0722
     24 C          60.1475   87.9817    5.9429 C.ar    1  UNL1        0.0805
     25 N          60.4361   87.2715    7.2322 N.ar    1  UNL1       -0.3241
     26 C          60.8334   85.8323    7.3762 C.3     1  UNL1        0.1305
     27 C          60.2577   88.2532    8.3522 C.ar    1  UNL1        0.0577
     28 C          59.4292   90.4682    5.2744 C.2     1  UNL1        0.2510
     29 O          57.9934   90.8566    5.0807 O.2     1  UNL1       -0.2698
     30 N          60.5036   91.1455    4.4763 N.am    1  UNL1       -0.2791
     31 H          61.4460   90.8905    4.6034 H       1  UNL1        0.1552
     32 C          60.1423   92.2112    3.4846 C.ar    1  UNL1        0.0701
     33 C          59.7722   91.8347    2.0806 C.ar    1  UNL1        0.0191
     34 C          59.4108   92.9004    1.0888 C.ar    1  UNL1        0.0354
     35 C          59.4195   94.3426    1.5010 C.ar    1  UNL1        0.1286
     36 N          59.7896   94.7191    2.9051 N.ar    1  UNL1       -0.2281
     37 C          60.1510   93.6534    3.8968 C.ar    1  UNL1        0.1149
     38 N          59.0582   95.4084    0.5093 N.pl3   1  UNL1       -0.3169
     39 H          59.0487   96.3537    0.7842 H       1  UNL1        0.1482
     40 C          58.7112   95.0339   -0.9012 C.3     1  UNL1        0.1057
     41 C          57.4520   95.5553   -1.5276 C.3     1  UNL1        0.0935
     42 N          56.5655   94.6322   -2.3099 N.3     1  UNL1       -0.2738
     43 C          57.0167   93.2331   -2.6082 C.3     1  UNL1        0.0576
     44 C          57.9350   92.9718   -3.7651 C.3     1  UNL1        0.0173
     45 C          56.5497   92.0953   -1.7496 C.3     1  UNL1        0.0173
     46 C          55.2278   95.1081   -2.7938 C.3     1  UNL1        0.0576
     47 C          54.1191   95.3524   -1.8133 C.3     1  UNL1        0.0173
     48 C          54.9989   95.3396   -4.2580 C.3     1  UNL1        0.0173
     49 C          63.1665   84.1760   14.2483 C.3     1  UNL1        0.0556
     50 C          63.0261   82.8493   13.5627 C.ar    1  UNL1       -0.0198
     51 C          62.1366   81.7929   14.1481 C.ar    1  UNL1       -0.0011
     52 C          61.9963   80.4662   13.4624 C.ar    1  UNL1        0.0363
     53 C          62.7454   80.1959   12.1913 C.ar    1  UNL1        0.1337
     54 O          62.6051   78.8692   11.5057 O.3     1  UNL1       -0.5055
     55 C          63.6350   81.2523   11.6058 C.ar    1  UNL1        0.0363
     56 C          63.7753   82.5791   12.2915 C.ar    1  UNL1       -0.0011
     57 H          62.0494   78.2093   11.8714 H       1  UNL1        0.2922
     58 C          64.7427   92.9307   12.2184 C.3     1  UNL1        0.1177
     59 C          65.7872   93.3821   11.2411 C.ar    1  UNL1       -0.0025
     60 C          65.8477   94.8202   10.8188 C.ar    1  UNL1       -0.0026
     61 C          66.8923   95.2716    9.8415 C.ar    1  UNL1       -0.0003
     62 C          67.8763   94.2850    9.2865 C.ar    1  UNL1       -0.0000
     63 C          67.8159   92.8468    9.7087 C.ar    1  UNL1       -0.0003
     64 C          66.7713   92.3954   10.6860 C.ar    1  UNL1       -0.0026
     65 C          66.1195   90.3490   14.8996 C.3     1  UNL1        0.1188
     66 C          66.2036   92.7274   15.9416 C.2     1  UNL1       -0.0034
     67 C          65.5007   91.4157   15.7534 C.2     1  UNL1       -0.0071
@<TRIPOS>BOND
     1    66    67    2
     2    67    65    1
     3    65     1    1
     4     1     2    1
     5     2     3    1
     6     3     4    2
     7     3     5   am
     8     5     6    1
     9     6    49    1
    10    49    50    1
    11    50    51   ar
    12    51    52   ar
    13    52    53   ar
    14    53    54    1
    15    53    55   ar
    16    55    56   ar
    17     6     7    1
    18     7     8    2
    19     7     9   am
    20     9    17    1
    21    17    18    1
    22    18    19   ar
    23    19    20   ar
    24    20    21   ar
    25    21    22   ar
    26    22    23   ar
    27    23    28    1
    28    28    29    2
    29    28    30   am
    30    30    32    1
    31    32    33   ar
    32    33    34   ar
    33    34    35   ar
    34    35    38    1
    35    38    40    1
    36    40    41    1
    37    41    42    1
    38    42    43    1
    39    43    44    1
    40    43    45    1
    41    42    46    1
    42    46    47    1
    43    46    48    1
    44    35    36   ar
    45    36    37   ar
    46    23    24   ar
    47    24    25   ar
    48    25    26    1
    49    25    27   ar
    50     9    10    1
    51    10    11    1
    52    11    12    1
    53    12    13   am
    54    13    14    2
    55    13    15   am
    56    15    58    1
    57    58    59    1
    58    59    60   ar
    59    60    61   ar
    60    61    62   ar
    61    62    63   ar
    62    63    64   ar
    63    12     1    1
    64    64    59   ar
    65    11     5    1
    66    56    50   ar
    67    27    18   ar
    68    27    22   ar
    69    37    32   ar
    70    54    57    1
    71    30    31    1
    72    38    39    1
    73    15    16    1
@<TRIPOS>MOLECULE
*****
 67 73 0 0 0
SMALL
GASTEIGER

@<TRIPOS>ATOM
      1 N          65.6998   89.8776   13.9521 N.3     1  UNL1       -0.1862
      2 C          66.1330   88.7100   14.7882 C.3     1  UNL1        0.1775
      3 C          65.3353   87.4398   14.7733 C.2     1  UNL1        0.2452
      4 O          65.7685   86.2722   15.6094 O.2     1  UNL1       -0.2732
      5 N          64.1043   87.3372   13.9223 N.am    1  UNL1       -0.2541
      6 C          63.3066   86.0670   13.9073 C.3     1  UNL1        0.1577
      7 C          62.0757   85.9644   13.0563 C.2     1  UNL1        0.2445
      8 O          61.2780   84.6942   13.0414 O.2     1  UNL1       -0.2731
      9 N          61.6424   87.1320   12.2202 N.am    1  UNL1       -0.2705
     10 C          62.4402   88.4022   12.2351 C.3     1  UNL1        0.1359
     11 C          63.6712   88.5048   13.0862 C.3     1  UNL1        0.1908
     12 N          64.4689   89.7750   13.1011 N.am    1  UNL1       -0.1863
     13 C          64.0356   90.9426   12.2650 C.2     1  UNL1        0.3191
     14 O          62.8047   90.8400   11.4140 O.2     1  UNL1       -0.2512
     15 N          64.8334   92.2128   12.2799 N.am    1  UNL1       -0.2836
     16 H          65.6413   92.2801   12.8385 H       1  UNL1        0.1513
     17 C          60.4115   87.0294   11.3692 C.3     1  UNL1        0.1217
     18 C          60.5227   87.1167    9.8758 C.ar    1  UNL1        0.0135
     19 C          60.9722   85.9232    9.0862 C.ar    1  UNL1       -0.0012
     20 C          61.0834   86.0104    7.5929 C.ar    1  UNL1       -0.0002
     21 C          60.7451   87.2912    6.8893 C.ar    1  UNL1        0.0016
     22 C          60.2956   88.4847    7.6789 C.ar    1  UNL1        0.0214
     23 C          59.8974   89.8702    7.2646 C.ar    1  UNL1        0.0722
     24 C          59.5402   90.6393    8.5019 C.ar    1  UNL1        0.0805
     25 N          59.7175   89.7291    9.6808 N.ar    1  UNL1       -0.3241
     26 C          59.4712   90.0875   11.1163 C.3     1  UNL1        0.1305
     27 C          60.1844   88.3974    9.1722 C.ar    1  UNL1        0.0577
     28 C          59.8627   90.3947    5.8596 C.2     1  UNL1        0.2510
     29 O          58.6752   90.1193    4.9855 O.2     1  UNL1       -0.2698
     30 N          61.0153   91.1945    5.3289 N.am    1  UNL1       -0.2791
     31 H          61.7946   91.3752    5.9026 H       1  UNL1        0.1552
     32 C          60.9806   91.7189    3.9240 C.ar    1  UNL1        0.0701
     33 C          62.1601   91.5183    3.0193 C.ar    1  UNL1        0.0191
     34 C          62.1255   92.0427    1.6144 C.ar    1  UNL1        0.0354
     35 C          60.9113   92.7677    1.1142 C.ar    1  UNL1        0.1286
     36 N          59.7318   92.9684    2.0189 N.ar    1  UNL1       -0.2281
     37 C          59.7664   92.4440    3.4238 C.ar    1  UNL1        0.1149
     38 N          60.8766   93.2922   -0.2907 N.pl3   1  UNL1       -0.3169
     39 H          61.0039   92.6773   -1.0489 H       1  UNL1        0.1482
     40 C          60.6480   94.7535   -0.5403 C.3     1  UNL1        0.1057
     41 C          61.7942   95.6345   -0.9402 C.3     1  UNL1        0.0935
     42 N          63.1918   95.0897   -0.9477 N.3     1  UNL1       -0.2738
     43 C          63.8132   94.6369   -2.2357 C.3     1  UNL1        0.0576
     44 C          64.8034   95.5160   -2.9404 C.3     1  UNL1        0.0173
     45 C          63.4444   93.3051   -2.8189 C.3     1  UNL1        0.0173
     46 C          63.9678   94.9977    0.3326 C.3     1  UNL1        0.0576
     47 C          65.0467   93.9664    0.4832 C.3     1  UNL1        0.0173
     48 C          63.6651   95.9369    1.4623 C.3     1  UNL1        0.0173
     49 C          63.7398   84.8994   14.7434 C.3     1  UNL1        0.0556
     50 C          63.4427   83.5009   14.2898 C.ar    1  UNL1       -0.0198
     51 C          62.2991   82.7428   14.8960 C.ar    1  UNL1       -0.0011
     52 C          62.0019   81.3443   14.4424 C.ar    1  UNL1        0.0363
     53 C          62.8484   80.7037   13.3827 C.ar    1  UNL1        0.1337
     54 O          62.5513   79.3052   12.9291 O.3     1  UNL1       -0.5055
     55 C          63.9921   81.4618   12.7765 C.ar    1  UNL1        0.0363
     56 C          64.2892   82.8603   13.2300 C.ar    1  UNL1       -0.0011
     57 H          61.8369   78.8317   13.3078 H       1  UNL1        0.2922
     58 C          64.4002   93.3804   11.4439 C.3     1  UNL1        0.1177
     59 C          65.4079   94.1315   10.6251 C.ar    1  UNL1       -0.0025
     60 C          65.2465   95.6065   10.4055 C.ar    1  UNL1       -0.0026
     61 C          66.2542   96.3576    9.5867 C.ar    1  UNL1       -0.0003
     62 C          67.4232   95.6336    8.9874 C.ar    1  UNL1       -0.0000
     63 C          67.5846   94.1585    9.2070 C.ar    1  UNL1       -0.0003
     64 C          66.5770   93.4074   10.0258 C.ar    1  UNL1       -0.0026
     65 C          66.4975   91.1478   13.9671 C.3     1  UNL1        0.1188
     66 C          68.2005   92.4035   15.4748 C.2     1  UNL1       -0.0034
     67 C          66.8412   91.8023   15.2722 C.2     1  UNL1       -0.0071
@<TRIPOS>BOND
     1    66    67    2
     2    67    65    1
     3    65     1    1
     4     1     2    1
     5     2     3    1
     6     3     4    2
     7     3     5   am
     8     5     6    1
     9     6    49    1
    10    49    50    1
    11    50    51   ar
    12    51    52   ar
    13    52    53   ar
    14    53    54    1
    15    53    55   ar
    16    55    56   ar
    17     6     7    1
    18     7     8    2
    19     7     9   am
    20     9    17    1
    21    17    18    1
    22    18    19   ar
    23    19    20   ar
    24    20    21   ar
    25    21    22   ar
    26    22    23   ar
    27    23    28    1
    28    28    29    2
    29    28    30   am
    30    30    32    1
    31    32    33   ar
    32    33    34   ar
    33    34    35   ar
    34    35    38    1
    35    38    40    1
    36    40    41    1
    37    41    42    1
    38    42    43    1
    39    43    44    1
    40    43    45    1
    41    42    46    1
    42    46    47    1
    43    46    48    1
    44    35    36   ar
    45    36    37   ar
    46    23    24   ar
    47    24    25   ar
    48    25    26    1
    49    25    27   ar
    50     9    10    1
    51    10    11    1
    52    11    12    1
    53    12    13   am
    54    13    14    2
    55    13    15   am
    56    15    58    1
    57    58    59    1
    58    59    60   ar
    59    60    61   ar
    60    61    62   ar
    61    62    63   ar
    62    63    64   ar
    63    12     1    1
    64    64    59   ar
    65    11     5    1
    66    56    50   ar
    67    27    18   ar
    68    27    22   ar
    69    37    32   ar
    70    54    57    1
    71    30    31    1
    72    38    39    1
    73    15    16    1
@<TRIPOS>MOLECULE
*****
 67 73 0 0 0
SMALL
GASTEIGER

@<TRIPOS>ATOM
      1 N          64.5450   83.1174   13.2749 N.3     1  UNL1       -0.1862
      2 C          65.1679   83.9920   14.3223 C.3     1  UNL1        0.1775
      3 C          64.7528   85.4282   14.4440 C.2     1  UNL1        0.2452
      4 O          65.3757   86.3028   15.4914 O.2     1  UNL1       -0.2732
      5 N          63.7147   85.9899   13.5183 N.am    1  UNL1       -0.2541
      6 C          63.2996   87.4262   13.6400 C.3     1  UNL1        0.1577
      7 C          62.2615   87.9879   12.7144 C.2     1  UNL1        0.2445
      8 O          61.8464   89.4242   12.8361 O.2     1  UNL1       -0.2731
      9 N          61.6386   87.1133   11.6669 N.am    1  UNL1       -0.2705
     10 C          62.0537   85.6770   11.5452 C.3     1  UNL1        0.1359
     11 C          63.0918   85.1154   12.4709 C.3     1  UNL1        0.1908
     12 N          63.5069   83.6791   12.3492 N.am    1  UNL1       -0.1863
     13 C          62.8839   82.8045   11.3018 C.2     1  UNL1        0.3191
     14 O          61.8459   83.3662   10.3761 O.2     1  UNL1       -0.2512
     15 N          63.2991   81.3682   11.1801 N.am    1  UNL1       -0.2836
     16 H          63.9804   80.9996   11.7877 H       1  UNL1        0.1513
     17 C          60.6005   87.6750   10.7412 C.3     1  UNL1        0.1217
     18 C          60.9457   88.8167    9.8315 C.ar    1  UNL1        0.0135
     19 C          61.9893   89.8131   10.2414 C.ar    1  UNL1       -0.0012
     20 C          62.3346   90.9547    9.3318 C.ar    1  UNL1       -0.0002
     21 C          61.6361   91.0999    8.0123 C.ar    1  UNL1        0.0016
     22 C          60.5925   90.1035    7.6024 C.ar    1  UNL1        0.0214
     23 C          59.7427   89.9889    6.3717 C.ar    1  UNL1        0.0722
     24 C          58.8722   88.7764    6.5208 C.ar    1  UNL1        0.0805
     25 N          59.1841   88.1417    7.8435 N.ar    1  UNL1       -0.3241
     26 C          58.5450   86.9041    8.4001 C.3     1  UNL1        0.1305
     27 C          60.2473   88.9619    8.5120 C.ar    1  UNL1        0.0577
     28 C          59.7602   90.9229    5.1980 C.2     1  UNL1        0.2510
     29 O          58.4730   91.4680    4.6540 O.2     1  UNL1       -0.2698
     30 N          61.0649   91.3116    4.5683 N.am    1  UNL1       -0.2791
     31 H          61.9098   90.9539    4.9254 H       1  UNL1        0.1552
     32 C          61.0825   92.2455    3.3947 C.ar    1  UNL1        0.0701
     33 C          62.3133   92.3586    2.5447 C.ar    1  UNL1        0.0191
     34 C          62.3310   93.2925    1.3710 C.ar    1  UNL1        0.0354
     35 C          61.1179   94.1133    1.0473 C.ar    1  UNL1        0.1286
     36 N          59.8872   94.0002    1.8973 N.ar    1  UNL1       -0.2281
     37 C          59.8695   93.0663    3.0710 C.ar    1  UNL1        0.1149
     38 N          61.1355   95.0472   -0.1263 N.pl3   1  UNL1       -0.3169
     39 H          60.8033   95.9686   -0.0272 H       1  UNL1        0.1482
     40 C          61.6593   94.5772   -1.4510 C.3     1  UNL1        0.1057
     41 C          60.9604   93.4710   -2.1843 C.3     1  UNL1        0.0935
     42 N          59.6299   93.7225   -2.8298 N.3     1  UNL1       -0.2738
     43 C          59.4788   94.8310   -3.8290 C.3     1  UNL1        0.0576
     44 C          58.4938   95.9349   -3.5814 C.3     1  UNL1        0.0173
     45 C          60.3127   94.8358   -5.0758 C.3     1  UNL1        0.0173
     46 C          58.4507   92.8656   -2.4761 C.3     1  UNL1        0.0576
     47 C          57.7757   92.0448   -3.5348 C.3     1  UNL1        0.0173
     48 C          57.9465   92.8296   -1.0639 C.3     1  UNL1        0.0173
     49 C          63.9225   88.3008   14.6874 C.3     1  UNL1        0.0556
     50 C          64.5111   89.6263   14.3046 C.ar    1  UNL1       -0.0198
     51 C          65.3247   90.4008   15.2986 C.ar    1  UNL1       -0.0011
     52 C          65.9132   91.7264   14.9159 C.ar    1  UNL1        0.0363
     53 C          65.6882   92.2774   13.5391 C.ar    1  UNL1        0.1337
     54 O          66.2767   93.6030   13.1563 O.3     1  UNL1       -0.5055
     55 C          64.8745   91.5029   12.5449 C.ar    1  UNL1        0.0363
     56 C          64.2860   90.1774   12.9277 C.ar    1  UNL1       -0.0011
     57 H          66.7850   94.0868   13.7772 H       1  UNL1        0.2922
     58 C          62.6762   80.4937   10.1327 C.3     1  UNL1        0.1177
     59 C          63.0891   79.0566   10.0130 C.ar    1  UNL1       -0.0025
     60 C          64.0572   78.6409    8.9454 C.ar    1  UNL1       -0.0026
     61 C          64.4701   77.2038    8.8257 C.ar    1  UNL1       -0.0003
     62 C          63.9149   76.1825    9.7736 C.ar    1  UNL1       -0.0000
     63 C          62.9467   76.5982   10.8412 C.ar    1  UNL1       -0.0003
     64 C          62.5338   78.0352   10.9610 C.ar    1  UNL1       -0.0026
     65 C          64.9601   81.6811   13.1532 C.3     1  UNL1        0.1188
     66 C          62.7761   80.7586   14.2157 C.2     1  UNL1       -0.0034
     67 C          64.2446   80.6243   13.9413 C.2     1  UNL1       -0.0071
@<TRIPOS>BOND
     1    66    67    2
     2    67    65    1
     3    65     1    1
     4     1     2    1
     5     2     3    1
     6     3     4    2
     7     3     5   am
     8     5     6    1
     9     6    49    1
    10    49    50    1
    11    50    51   ar
    12    51    52   ar
    13    52    53   ar
    14    53    54    1
    15    53    55   ar
    16    55    56   ar
    17     6     7    1
    18     7     8    2
    19     7     9   am
    20     9    17    1
    21    17    18    1
    22    18    19   ar
    23    19    20   ar
    24    20    21   ar
    25    21    22   ar
    26    22    23   ar
    27    23    28    1
    28    28    29    2
    29    28    30   am
    30    30    32    1
    31    32    33   ar
    32    33    34   ar
    33    34    35   ar
    34    35    38    1
    35    38    40    1
    36    40    41    1
    37    41    42    1
    38    42    43    1
    39    43    44    1
    40    43    45    1
    41    42    46    1
    42    46    47    1
    43    46    48    1
    44    35    36   ar
    45    36    37   ar
    46    23    24   ar
    47    24    25   ar
    48    25    26    1
    49    25    27   ar
    50     9    10    1
    51    10    11    1
    52    11    12    1
    53    12    13   am
    54    13    14    2
    55    13    15   am
    56    15    58    1
    57    58    59    1
    58    59    60   ar
    59    60    61   ar
    60    61    62   ar
    61    62    63   ar
    62    63    64   ar
    63    12     1    1
    64    64    59   ar
    65    11     5    1
    66    56    50   ar
    67    27    18   ar
    68    27    22   ar
    69    37    32   ar
    70    54    57    1
    71    30    31    1
    72    38    39    1
    73    15    16    1
@<TRIPOS>MOLECULE
*****
 67 73 0 0 0
SMALL
GASTEIGER

@<TRIPOS>ATOM
      1 N          64.5953   83.2385   13.2131 N.3     1  UNL1       -0.1862
      2 C          65.2082   84.1221   14.2588 C.3     1  UNL1        0.1775
      3 C          64.7765   85.5537   14.3779 C.2     1  UNL1        0.2452
      4 O          65.3894   86.4374   15.4237 O.2     1  UNL1       -0.2732
      5 N          63.7319   86.1016   13.4514 N.am    1  UNL1       -0.2541
      6 C          63.3001   87.5332   13.5705 C.3     1  UNL1        0.1577
      7 C          62.2555   88.0811   12.6439 C.2     1  UNL1        0.2445
      8 O          61.8238   89.5127   12.7631 O.2     1  UNL1       -0.2731
      9 N          61.6426   87.1975   11.5982 N.am    1  UNL1       -0.2705
     10 C          62.0743   85.7659   11.4790 C.3     1  UNL1        0.1359
     11 C          63.1190   85.2180   12.4057 C.3     1  UNL1        0.1908
     12 N          63.5507   83.7864   12.2865 N.am    1  UNL1       -0.1863
     13 C          62.9378   82.9027   11.2408 C.2     1  UNL1        0.3191
     14 O          61.8932   83.4507   10.3142 O.2     1  UNL1       -0.2512
     15 N          63.3695   81.4712   11.1216 N.am    1  UNL1       -0.2836
     16 H          64.0552   81.1115   11.7298 H       1  UNL1        0.1513
     17 C          60.5980   87.7454   10.6716 C.3     1  UNL1        0.1217
     18 C          60.9340   88.8799    9.7496 C.ar    1  UNL1        0.0135
     19 C          61.9809   89.8801   10.1416 C.ar    1  UNL1       -0.0012
     20 C          62.3168   91.0146    9.2196 C.ar    1  UNL1       -0.0002
     21 C          61.6059   91.1489    7.9057 C.ar    1  UNL1        0.0016
     22 C          60.5589   90.1488    7.5138 C.ar    1  UNL1        0.0214
     23 C          59.6975   90.0240    6.2922 C.ar    1  UNL1        0.0722
     24 C          58.8291   88.8123    6.4591 C.ar    1  UNL1        0.0805
     25 N          59.1539   88.1884    7.7839 N.ar    1  UNL1       -0.3241
     26 C          58.5208   86.9549    8.3564 C.3     1  UNL1        0.1305
     27 C          60.2230   89.0143    8.4357 C.ar    1  UNL1        0.0577
     28 C          59.7033   90.9486    5.1109 C.2     1  UNL1        0.2510
     29 O          58.4134   91.5134    4.5942 O.2     1  UNL1       -0.2698
     30 N          60.9991   91.3082    4.4464 N.am    1  UNL1       -0.2791
     31 H          61.8457   90.9374    4.7856 H       1  UNL1        0.1552
     32 C          61.0051   92.2327    3.2653 C.ar    1  UNL1        0.0701
     33 C          62.2176   92.3188    2.3864 C.ar    1  UNL1        0.0191
     34 C          62.2237   93.2432    1.2052 C.ar    1  UNL1        0.0354
     35 C          61.0172   94.0817    0.9029 C.ar    1  UNL1        0.1286
     36 N          59.8047   93.9956    1.7817 N.ar    1  UNL1       -0.2281
     37 C          59.7986   93.0712    2.9629 C.ar    1  UNL1        0.1149
     38 N          61.0231   95.0062   -0.2783 N.pl3   1  UNL1       -0.3169
     39 H          60.8624   95.9691   -0.1506 H       1  UNL1        0.1482
     40 C          61.2740   94.4637   -1.6541 C.3     1  UNL1        0.1057
     41 C          61.9543   95.3160   -2.6840 C.3     1  UNL1        0.0935
     42 N          63.3111   94.9335   -3.1966 N.3     1  UNL1       -0.2738
     43 C          63.4441   93.8675   -4.2435 C.3     1  UNL1        0.0576
     44 C          64.2434   92.6309   -3.9575 C.3     1  UNL1        0.0173
     45 C          62.7777   94.0382   -5.5765 C.3     1  UNL1        0.0173
     46 C          64.5349   95.6168   -2.6624 C.3     1  UNL1        0.0576
     47 C          64.8869   95.4964   -1.2092 C.3     1  UNL1        0.0173
     48 C          65.4065   96.4205   -3.5812 C.3     1  UNL1        0.0173
     49 C          63.9130   88.4169   14.6162 C.3     1  UNL1        0.0556
     50 C          64.6271   89.6727   14.2123 C.ar    1  UNL1       -0.0198
     51 C          64.1516   90.4572   13.0255 C.ar    1  UNL1       -0.0011
     52 C          64.8657   91.7130   12.6217 C.ar    1  UNL1        0.0363
     53 C          66.0552   92.1842   13.4046 C.ar    1  UNL1        0.1337
     54 O          66.7692   93.4400   13.0007 O.3     1  UNL1       -0.5055
     55 C          66.5307   91.3997   14.5914 C.ar    1  UNL1        0.0363
     56 C          65.8166   90.1439   14.9953 C.ar    1  UNL1       -0.0011
     57 H          66.4723   93.9301   12.2594 H       1  UNL1        0.2922
     58 C          62.7567   80.5875   10.0760 C.3     1  UNL1        0.1177
     59 C          63.1028   79.1287   10.0300 C.ar    1  UNL1       -0.0025
     60 C          64.0139   78.6075    8.9585 C.ar    1  UNL1       -0.0026
     61 C          64.3601   77.1487    8.9125 C.ar    1  UNL1       -0.0003
     62 C          63.7951   76.2111    9.9380 C.ar    1  UNL1       -0.0000
     63 C          62.8840   76.7323   11.0096 C.ar    1  UNL1       -0.0003
     64 C          62.5378   78.1911   11.0556 C.ar    1  UNL1       -0.0026
     65 C          65.0271   81.8069   13.0940 C.3     1  UNL1        0.1188
     66 C          62.9185   80.6148   14.0336 C.2     1  UNL1       -0.0034
     67 C          64.4101   80.7617   13.9753 C.2     1  UNL1       -0.0071
@<TRIPOS>BOND
     1    66    67    2
     2    67    65    1
     3    65     1    1
     4     1     2    1
     5     2     3    1
     6     3     4    2
     7     3     5   am
     8     5     6    1
     9     6    49    1
    10    49    50    1
    11    50    51   ar
    12    51    52   ar
    13    52    53   ar
    14    53    54    1
    15    53    55   ar
    16    55    56   ar
    17     6     7    1
    18     7     8    2
    19     7     9   am
    20     9    17    1
    21    17    18    1
    22    18    19   ar
    23    19    20   ar
    24    20    21   ar
    25    21    22   ar
    26    22    23   ar
    27    23    28    1
    28    28    29    2
    29    28    30   am
    30    30    32    1
    31    32    33   ar
    32    33    34   ar
    33    34    35   ar
    34    35    38    1
    35    38    40    1
    36    40    41    1
    37    41    42    1
    38    42    43    1
    39    43    44    1
    40    43    45    1
    41    42    46    1
    42    46    47    1
    43    46    48    1
    44    35    36   ar
    45    36    37   ar
    46    23    24   ar
    47    24    25   ar
    48    25    26    1
    49    25    27   ar
    50     9    10    1
    51    10    11    1
    52    11    12    1
    53    12    13   am
    54    13    14    2
    55    13    15   am
    56    15    58    1
    57    58    59    1
    58    59    60   ar
    59    60    61   ar
    60    61    62   ar
    61    62    63   ar
    62    63    64   ar
    63    12     1    1
    64    64    59   ar
    65    11     5    1
    66    56    50   ar
    67    27    18   ar
    68    27    22   ar
    69    37    32   ar
    70    54    57    1
    71    30    31    1
    72    38    39    1
    73    15    16    1
