@<TRIPOS>MOLECULE
*****
 43 48 0 0 0
SMALL
GASTEIGER

@<TRIPOS>ATOM
      1 C          61.6884   88.5456   11.1677 C.ar    1  UNL1        0.0040
      2 C          61.3665   87.4103   10.2417 C.ar    1  UNL1        0.0719
      3 C          62.0233   86.1734   10.7790 C.ar    1  UNL1        0.1049
      4 N          62.7511   86.5443   12.0371 N.ar    1  UNL1       -0.2242
      5 N          63.5755   85.7364   12.9950 N.ar    1  UNL1       -0.1422
      6 C          64.1929   86.3946   14.1931 C.ar    1  UNL1        0.2211
      7 N          63.9859   87.8607   14.4333 N.ar    1  UNL1       -0.2060
      8 C          63.1615   88.6686   13.4754 C.ar    1  UNL1        0.1515
      9 C          62.5441   88.0104   12.2773 C.ar    1  UNL1        0.1107
     10 C          60.5341   87.4967    8.9969 C.ar    1  UNL1        0.2543
     11 N          59.8246   86.3559    8.3296 N.ar    1  UNL1       -0.1042
     12 N          59.1170   86.8933    7.1211 N.ar    1  UNL1       -0.0714
     13 C          59.3890   88.3662    7.0414 C.ar    1  UNL1        0.4173
     14 O          60.2648   88.7392    8.2007 O.2     1  UNL1       -0.3888
     15 O          58.8755   89.3020    5.9876 O.3     1  UNL1       -0.4326
     16 C          59.2472   90.7546    6.0287 C.3     1  UNL1        0.2103
     17 C          59.9103   91.3929    4.8443 C.3     1  UNL1        0.0467
     18 C          59.1222   92.2906    3.9372 C.3     1  UNL1        0.0208
     19 C          59.7854   92.9290    2.7527 C.3     1  UNL1        0.0687
     20 N          61.2365   92.6695    2.4754 N.3     1  UNL1       -0.2975
     21 C          62.0245   91.7717    3.3826 C.3     1  UNL1        0.0687
     22 C          61.3614   91.1334    4.5671 C.3     1  UNL1        0.0208
     23 H          61.7038   93.5761    2.4799 H       1  UNL1        0.1232
     24 C          62.1503   90.9835   10.3973 C.3     1  UNL1        0.0047
     25 C          61.2344   89.9667   11.0115 C.3     1  UNL1        0.0241
     26 C          59.8644   90.3710   11.4693 C.3     1  UNL1        0.0047
     27 N          62.9546   90.1347   13.7156 N.pl3   1  UNL1       -0.2949
     28 H          62.0437   90.5081   13.7258 H       1  UNL1        0.1537
     29 C          64.1354   91.0319   13.9403 C.ar    1  UNL1        0.0775
     30 C          64.8230   91.6735   12.7716 C.ar    1  UNL1        0.0237
     31 C          66.0039   92.5707   12.9963 C.ar    1  UNL1        0.0821
     32 C          66.4972   92.8264   14.3896 C.ar    1  UNL1        0.1468
     33 F          67.6781   93.7237   14.6142 F       1  UNL1       -0.2039
     34 C          65.8097   92.1849   15.5582 C.ar    1  UNL1        0.0607
     35 C          64.6288   91.2876   15.3336 C.ar    1  UNL1        0.1557
     36 F          63.9413   90.6461   16.5022 F       1  UNL1       -0.2028
     37 C          66.6914   93.2123   11.8276 C.2     1  UNL1        0.2480
     38 O          67.8378   92.5154   11.1568 O.2     1  UNL1       -0.2701
     39 N          66.2325   94.5509   11.3299 N.am    1  UNL1       -0.3024
     40 H          65.4801   95.0083   11.7702 H       1  UNL1        0.1497
     41 C          66.9200   95.1925   10.1613 C.3     1  UNL1        0.0720
     42 C          67.3189   96.4251    9.4053 C.3     1  UNL1        0.0213
     43 C          67.7119   95.0712    8.8932 C.3     1  UNL1        0.0213
@<TRIPOS>BOND
     1    24    25    1
     2    25    26    1
     3    25     1    1
     4     1     2   ar
     5     2    10    1
     6    10    11   ar
     7    11    12   ar
     8    12    13   ar
     9    13    15    1
    10    15    16    1
    11    16    17    1
    12    17    18    1
    13    18    19    1
    14    19    20    1
    15    20    21    1
    16    21    22    1
    17    13    14   ar
    18     2     3   ar
    19     3     4   ar
    20     4     5   ar
    21     5     6   ar
    22     6     7   ar
    23     7     8   ar
    24     8    27    1
    25    27    29    1
    26    29    30   ar
    27    30    31   ar
    28    31    37    1
    29    37    38    2
    30    37    39   am
    31    39    41    1
    32    41    42    1
    33    42    43    1
    34    31    32   ar
    35    32    33    1
    36    32    34   ar
    37    34    35   ar
    38    35    36    1
    39     8     9   ar
    40     9     1   ar
    41    14    10   ar
    42     9     4   ar
    43    22    17    1
    44    35    29   ar
    45    43    41    1
    46    20    23    1
    47    27    28    1
    48    39    40    1
@<TRIPOS>MOLECULE
*****
 43 48 0 0 0
SMALL
GASTEIGER

@<TRIPOS>ATOM
      1 C          62.3488   87.8986   11.6950 C.ar    1  UNL1        0.0040
      2 C          62.2674   86.6600   10.8529 C.ar    1  UNL1        0.0719
      3 C          62.9428   85.5474   11.5985 C.ar    1  UNL1        0.1049
      4 N          63.4416   86.0983   12.9015 N.ar    1  UNL1       -0.2242
      5 N          64.1826   85.4646   14.0413 N.ar    1  UNL1       -0.1422
      6 C          64.5565   86.2840   15.2407 C.ar    1  UNL1        0.2211
      7 N          64.1894   87.7371   15.3004 N.ar    1  UNL1       -0.2060
      8 C          63.4484   88.3709   14.1606 C.ar    1  UNL1        0.1515
      9 C          63.0745   87.5515   12.9611 C.ar    1  UNL1        0.1107
     10 C          61.6237   86.5528    9.5023 C.ar    1  UNL1        0.2543
     11 N          61.8894   85.4868    8.4810 N.ar    1  UNL1       -0.1042
     12 N          61.0312   85.7680    7.2834 N.ar    1  UNL1       -0.0714
     13 C          60.2350   87.0078    7.5644 C.ar    1  UNL1        0.4173
     14 O          60.6013   87.4929    8.9358 O.2     1  UNL1       -0.3888
     15 O          59.2463   87.6499    6.6370 O.3     1  UNL1       -0.4326
     16 C          58.6939   89.0082    6.9532 C.3     1  UNL1        0.2103
     17 C          58.8436   90.1272    5.9657 C.3     1  UNL1        0.0467
     18 C          60.2074   90.5248    5.4839 C.3     1  UNL1        0.0208
     19 C          60.3572   91.6439    4.4963 C.3     1  UNL1        0.0687
     20 N          59.1433   92.3653    3.9905 N.3     1  UNL1       -0.2975
     21 C          57.7795   91.9677    4.4722 C.3     1  UNL1        0.0687
     22 C          57.6297   90.8486    5.4599 C.3     1  UNL1        0.0208
     23 H          59.1395   92.2598    2.9760 H       1  UNL1        0.1232
     24 C          60.4335   89.6509   11.8015 C.3     1  UNL1        0.0047
     25 C          61.8008   89.2475   11.3345 C.3     1  UNL1        0.0241
     26 C          62.6198   90.1931   10.5069 C.3     1  UNL1        0.0047
     27 N          63.0813   89.8241   14.2202 N.pl3   1  UNL1       -0.2949
     28 H          62.1373   90.0963   14.1569 H       1  UNL1        0.1537
     29 C          64.1525   90.8624   14.3763 C.ar    1  UNL1        0.0775
     30 C          64.8383   91.4205   13.1646 C.ar    1  UNL1        0.0237
     31 C          65.9095   92.4589   13.3207 C.ar    1  UNL1        0.0821
     32 C          66.2948   92.9392   14.6885 C.ar    1  UNL1        0.1468
     33 F          67.3660   93.9776   14.8446 F       1  UNL1       -0.2039
     34 C          65.6090   92.3811   15.9002 C.ar    1  UNL1        0.0607
     35 C          64.5378   91.3427   15.7441 C.ar    1  UNL1        0.1557
     36 F          63.8520   90.7847   16.9558 F       1  UNL1       -0.2028
     37 C          66.5954   93.0170   12.1090 C.2     1  UNL1        0.2480
     38 O          66.7057   94.5018   11.9269 O.2     1  UNL1       -0.2701
     39 N          67.1708   92.0902   11.0795 N.am    1  UNL1       -0.3024
     40 H          67.0984   91.1157   11.1990 H       1  UNL1        0.1497
     41 C          67.8567   92.6483    9.8678 C.3     1  UNL1        0.0720
     42 C          68.8033   92.4774    8.7168 C.3     1  UNL1        0.0213
     43 C          68.0980   93.7856    8.9201 C.3     1  UNL1        0.0213
@<TRIPOS>BOND
     1    24    25    1
     2    25    26    1
     3    25     1    1
     4     1     2   ar
     5     2    10    1
     6    10    11   ar
     7    11    12   ar
     8    12    13   ar
     9    13    15    1
    10    15    16    1
    11    16    17    1
    12    17    18    1
    13    18    19    1
    14    19    20    1
    15    20    21    1
    16    21    22    1
    17    13    14   ar
    18     2     3   ar
    19     3     4   ar
    20     4     5   ar
    21     5     6   ar
    22     6     7   ar
    23     7     8   ar
    24     8    27    1
    25    27    29    1
    26    29    30   ar
    27    30    31   ar
    28    31    37    1
    29    37    38    2
    30    37    39   am
    31    39    41    1
    32    41    42    1
    33    42    43    1
    34    31    32   ar
    35    32    33    1
    36    32    34   ar
    37    34    35   ar
    38    35    36    1
    39     8     9   ar
    40     9     1   ar
    41    14    10   ar
    42     9     4   ar
    43    22    17    1
    44    35    29   ar
    45    43    41    1
    46    20    23    1
    47    27    28    1
    48    39    40    1
@<TRIPOS>MOLECULE
*****
 43 48 0 0 0
SMALL
GASTEIGER

@<TRIPOS>ATOM
      1 C          61.3236   93.4944    1.8352 C.ar    1  UNL1        0.0040
      2 C          61.4353   92.4641    2.9196 C.ar    1  UNL1        0.0719
      3 C          62.8514   91.9702    2.9455 C.ar    1  UNL1        0.1049
      4 N          63.6149   92.6953    1.8772 N.ar    1  UNL1       -0.2242
      5 N          65.0479   92.6196    1.4407 N.ar    1  UNL1       -0.1422
      6 C          65.5367   93.4858    0.3179 C.ar    1  UNL1        0.2211
      7 N          64.5924   94.4279   -0.3683 N.ar    1  UNL1       -0.2060
      8 C          63.1594   94.5037    0.0683 C.ar    1  UNL1        0.1515
      9 C          62.6706   93.6374    1.1910 C.ar    1  UNL1        0.1107
     10 C          60.3257   92.0077    3.8199 C.ar    1  UNL1        0.2543
     11 N          58.8965   92.4586    3.7560 N.ar    1  UNL1       -0.1042
     12 N          58.1380   91.7498    4.8388 N.ar    1  UNL1       -0.0714
     13 C          59.0984   90.8609    5.5718 C.ar    1  UNL1        0.4173
     14 O          60.4504   91.0202    4.9421 O.2     1  UNL1       -0.3888
     15 O          58.7653   89.9691    6.7311 O.3     1  UNL1       -0.4326
     16 C          59.6727   88.8283    7.0848 C.3     1  UNL1        0.2103
     17 C          60.0308   88.5716    8.5186 C.3     1  UNL1        0.0467
     18 C          60.3043   87.1722    8.9843 C.3     1  UNL1        0.0208
     19 C          60.6624   86.9155   10.4182 C.3     1  UNL1        0.0687
     20 N          60.7469   88.0581   11.3863 N.3     1  UNL1       -0.2975
     21 C          60.4733   89.4575   10.9206 C.3     1  UNL1        0.0687
     22 C          60.1152   89.7142    9.4867 C.3     1  UNL1        0.0208
     23 H          61.6939   88.0537   11.7651 H       1  UNL1        0.1232
     24 C          59.0094   93.5768    0.6571 C.3     1  UNL1        0.0047
     25 C          60.0826   94.2494    1.4608 C.3     1  UNL1        0.0241
     26 C          59.9149   95.6768    1.8900 C.3     1  UNL1        0.0047
     27 N          62.2151   95.4457   -0.6179 N.pl3   1  UNL1       -0.2949
     28 H          61.8905   96.2471   -0.1471 H       1  UNL1        0.1537
     29 C          61.7654   95.1668   -2.0215 C.ar    1  UNL1        0.0775
     30 C          60.4384   94.5122   -2.2678 C.ar    1  UNL1        0.0237
     31 C          59.9887   94.2333   -3.6713 C.ar    1  UNL1        0.0821
     32 C          60.8659   94.6089   -4.8286 C.ar    1  UNL1        0.1468
     33 F          60.4162   94.3300   -6.2322 F       1  UNL1       -0.2039
     34 C          62.1929   95.2635   -4.5823 C.ar    1  UNL1        0.0607
     35 C          62.6427   95.5424   -3.1788 C.ar    1  UNL1        0.1557
     36 F          63.9696   96.1970   -2.9325 F       1  UNL1       -0.2028
     37 C          58.6616   93.5787   -3.9176 C.2     1  UNL1        0.2480
     38 O          57.6881   94.1950   -4.8780 O.2     1  UNL1       -0.2701
     39 N          58.3082   92.3079   -3.2034 N.am    1  UNL1       -0.3024
     40 H          58.9472   91.9034   -2.5731 H       1  UNL1        0.1497
     41 C          56.9813   91.6533   -3.4497 C.3     1  UNL1        0.0720
     42 C          55.7817   90.9146   -2.9346 C.3     1  UNL1        0.0213
     43 C          55.8825   91.2581   -4.3912 C.3     1  UNL1        0.0213
@<TRIPOS>BOND
     1    24    25    1
     2    25    26    1
     3    25     1    1
     4     1     2   ar
     5     2    10    1
     6    10    11   ar
     7    11    12   ar
     8    12    13   ar
     9    13    15    1
    10    15    16    1
    11    16    17    1
    12    17    18    1
    13    18    19    1
    14    19    20    1
    15    20    21    1
    16    21    22    1
    17    13    14   ar
    18     2     3   ar
    19     3     4   ar
    20     4     5   ar
    21     5     6   ar
    22     6     7   ar
    23     7     8   ar
    24     8    27    1
    25    27    29    1
    26    29    30   ar
    27    30    31   ar
    28    31    37    1
    29    37    38    2
    30    37    39   am
    31    39    41    1
    32    41    42    1
    33    42    43    1
    34    31    32   ar
    35    32    33    1
    36    32    34   ar
    37    34    35   ar
    38    35    36    1
    39     8     9   ar
    40     9     1   ar
    41    14    10   ar
    42     9     4   ar
    43    22    17    1
    44    35    29   ar
    45    43    41    1
    46    20    23    1
    47    27    28    1
    48    39    40    1
@<TRIPOS>MOLECULE
*****
 43 48 0 0 0
SMALL
GASTEIGER

@<TRIPOS>ATOM
      1 C          62.5146   86.8353   11.4784 C.ar    1  UNL1        0.0040
      2 C          62.4819   85.8674   10.3328 C.ar    1  UNL1        0.0719
      3 C          61.7926   86.5362    9.1806 C.ar    1  UNL1        0.1049
      4 N          61.3993   87.9173    9.6140 N.ar    1  UNL1       -0.2242
      5 N          60.6925   89.0305    8.8990 N.ar    1  UNL1       -0.1422
      6 C          60.4319   90.3285    9.6041 C.ar    1  UNL1        0.2211
      7 N          60.8782   90.5133   11.0242 N.ar    1  UNL1       -0.2060
      8 C          61.5850   89.4002   11.7392 C.ar    1  UNL1        0.1515
      9 C          61.8455   88.1022   11.0341 C.ar    1  UNL1        0.1107
     10 C          63.0404   84.4753   10.3386 C.ar    1  UNL1        0.2543
     11 N          64.4091   84.0725    9.8756 N.ar    1  UNL1       -0.1042
     12 N          64.5429   82.5898   10.0591 N.ar    1  UNL1       -0.0714
     13 C          63.2569   82.0762   10.6356 C.ar    1  UNL1        0.4173
     14 O          62.3283   83.2415   10.8083 O.2     1  UNL1       -0.3888
     15 O          62.9528   80.6481   10.9790 O.3     1  UNL1       -0.4326
     16 C          62.6882   80.2592   12.4034 C.3     1  UNL1        0.2103
     17 C          62.8967   81.2565   13.5042 C.3     1  UNL1        0.0467
     18 C          61.7175   81.8102   14.2478 C.3     1  UNL1        0.0208
     19 C          61.9261   82.8076   15.3487 C.3     1  UNL1        0.0687
     20 N          63.3137   83.2512   15.7059 N.3     1  UNL1       -0.2975
     21 C          64.4929   82.6975   14.9622 C.3     1  UNL1        0.0687
     22 C          64.2844   81.7001   13.8614 C.3     1  UNL1        0.0208
     23 H          63.4520   83.0217   16.6900 H       1  UNL1        0.1232
     24 C          64.1660   87.5014   13.3703 C.3     1  UNL1        0.0047
     25 C          63.1116   86.5809   12.8307 C.3     1  UNL1        0.0241
     26 C          62.6543   85.4062   13.6436 C.3     1  UNL1        0.0047
     27 N          62.0312   89.5850   13.1593 N.pl3   1  UNL1       -0.2949
     28 H          61.5340   89.1539   13.8916 H       1  UNL1        0.1537
     29 C          63.2349   90.4266   13.4638 C.ar    1  UNL1        0.0775
     30 C          63.8846   91.2281   12.3748 C.ar    1  UNL1        0.0237
     31 C          65.0883   92.0697   12.6792 C.ar    1  UNL1        0.0821
     32 C          65.6424   92.1099   14.0726 C.ar    1  UNL1        0.1468
     33 F          66.8462   92.9516   14.3769 F       1  UNL1       -0.2039
     34 C          64.9928   91.3086   15.1615 C.ar    1  UNL1        0.0607
     35 C          63.7890   90.4669   14.8571 C.ar    1  UNL1        0.1557
     36 F          63.1394   89.6655   15.9460 F       1  UNL1       -0.2028
     37 C          65.7379   92.8711   11.5903 C.2     1  UNL1        0.2480
     38 O          66.2898   92.1808   10.3784 O.2     1  UNL1       -0.2701
     39 N          65.8357   94.3629   11.7134 N.am    1  UNL1       -0.3024
     40 H          65.4735   94.8159   12.5089 H       1  UNL1        0.1497
     41 C          66.4853   95.1643   10.6246 C.3     1  UNL1        0.0720
     42 C          66.7590   96.4868    9.9717 C.3     1  UNL1        0.0213
     43 C          67.3368   95.2301    9.3915 C.3     1  UNL1        0.0213
@<TRIPOS>BOND
     1    24    25    1
     2    25    26    1
     3    25     1    1
     4     1     2   ar
     5     2    10    1
     6    10    11   ar
     7    11    12   ar
     8    12    13   ar
     9    13    15    1
    10    15    16    1
    11    16    17    1
    12    17    18    1
    13    18    19    1
    14    19    20    1
    15    20    21    1
    16    21    22    1
    17    13    14   ar
    18     2     3   ar
    19     3     4   ar
    20     4     5   ar
    21     5     6   ar
    22     6     7   ar
    23     7     8   ar
    24     8    27    1
    25    27    29    1
    26    29    30   ar
    27    30    31   ar
    28    31    37    1
    29    37    38    2
    30    37    39   am
    31    39    41    1
    32    41    42    1
    33    42    43    1
    34    31    32   ar
    35    32    33    1
    36    32    34   ar
    37    34    35   ar
    38    35    36    1
    39     8     9   ar
    40     9     1   ar
    41    14    10   ar
    42     9     4   ar
    43    22    17    1
    44    35    29   ar
    45    43    41    1
    46    20    23    1
    47    27    28    1
    48    39    40    1
@<TRIPOS>MOLECULE
*****
 43 48 0 0 0
SMALL
GASTEIGER

@<TRIPOS>ATOM
      1 C          63.7119   88.1642   13.8322 C.ar    1  UNL1        0.0040
      2 C          63.6169   89.6598   13.7682 C.ar    1  UNL1        0.0719
      3 C          63.0366   90.0308   12.4357 C.ar    1  UNL1        0.1049
      4 N          62.7729   88.7645   11.6762 N.ar    1  UNL1       -0.2242
      5 N          62.2067   88.5129   10.3102 N.ar    1  UNL1       -0.1422
      6 C          62.0578   87.1076    9.8072 C.ar    1  UNL1        0.2211
      7 N          62.4752   85.9539   10.6703 N.ar    1  UNL1       -0.2060
      8 C          63.0414   86.2056   12.0363 C.ar    1  UNL1        0.1515
      9 C          63.1903   87.6108   12.5393 C.ar    1  UNL1        0.1107
     10 C          64.0298   90.6165   14.8473 C.ar    1  UNL1        0.2543
     11 N          63.1804   91.0666   15.9988 N.ar    1  UNL1       -0.1042
     12 N          63.9902   92.0193   16.8275 N.ar    1  UNL1       -0.0714
     13 C          65.3400   92.1579   16.1882 C.ar    1  UNL1        0.4173
     14 O          65.3644   91.2909   14.9643 O.2     1  UNL1       -0.3888
     15 O          66.4674   93.0134   16.6853 O.3     1  UNL1       -0.4326
     16 C          67.6385   93.3031   15.7939 C.3     1  UNL1        0.2103
     17 C          67.5129   93.1270   14.3097 C.3     1  UNL1        0.0467
     18 C          68.3065   92.0632   13.6108 C.3     1  UNL1        0.0208
     19 C          68.1808   91.8871   12.1264 C.3     1  UNL1        0.0687
     20 N          67.2617   92.7748   11.3410 N.3     1  UNL1       -0.2975
     21 C          66.4681   93.8387   12.0398 C.3     1  UNL1        0.0687
     22 C          66.5937   94.0148   13.5242 C.3     1  UNL1        0.0208
     23 H          66.5900   92.1647   10.8751 H       1  UNL1        0.1232
     24 C          63.5354   87.4090   16.3119 C.3     1  UNL1        0.0047
     25 C          64.2364   87.3626   14.9865 C.3     1  UNL1        0.0241
     26 C          65.4617   86.5146   14.8155 C.3     1  UNL1        0.0047
     27 N          63.4588   85.0519   12.8994 N.pl3   1  UNL1       -0.2949
     28 H          63.8411   85.2175   13.7914 H       1  UNL1        0.1537
     29 C          63.2935   83.6460   12.4035 C.ar    1  UNL1        0.0775
     30 C          62.4101   82.6877   13.1461 C.ar    1  UNL1        0.0237
     31 C          62.2449   81.2817   12.6502 C.ar    1  UNL1        0.0821
     32 C          62.9631   80.8340   11.4117 C.ar    1  UNL1        0.1468
     33 F          62.7978   79.4280   10.9158 F       1  UNL1       -0.2039
     34 C          63.8464   81.7922   10.6691 C.ar    1  UNL1        0.0607
     35 C          64.0117   83.1982   11.1650 C.ar    1  UNL1        0.1557
     36 F          64.8950   84.1565   10.4225 F       1  UNL1       -0.2028
     37 C          61.3615   80.3234   13.3928 C.2     1  UNL1        0.2480
     38 O          61.8610   78.9496   13.7290 O.2     1  UNL1       -0.2701
     39 N          59.9787   80.7390   13.7990 N.am    1  UNL1       -0.3024
     40 H          59.6509   81.6407   13.5783 H       1  UNL1        0.1497
     41 C          59.0953   79.7808   14.5416 C.3     1  UNL1        0.0720
     42 C          58.0067   79.5258   15.5415 C.3     1  UNL1        0.0213
     43 C          58.6538   78.3761   14.8278 C.3     1  UNL1        0.0213
@<TRIPOS>BOND
     1    24    25    1
     2    25    26    1
     3    25     1    1
     4     1     2   ar
     5     2    10    1
     6    10    11   ar
     7    11    12   ar
     8    12    13   ar
     9    13    15    1
    10    15    16    1
    11    16    17    1
    12    17    18    1
    13    18    19    1
    14    19    20    1
    15    20    21    1
    16    21    22    1
    17    13    14   ar
    18     2     3   ar
    19     3     4   ar
    20     4     5   ar
    21     5     6   ar
    22     6     7   ar
    23     7     8   ar
    24     8    27    1
    25    27    29    1
    26    29    30   ar
    27    30    31   ar
    28    31    37    1
    29    37    38    2
    30    37    39   am
    31    39    41    1
    32    41    42    1
    33    42    43    1
    34    31    32   ar
    35    32    33    1
    36    32    34   ar
    37    34    35   ar
    38    35    36    1
    39     8     9   ar
    40     9     1   ar
    41    14    10   ar
    42     9     4   ar
    43    22    17    1
    44    35    29   ar
    45    43    41    1
    46    20    23    1
    47    27    28    1
    48    39    40    1
@<TRIPOS>MOLECULE
*****
 43 48 0 0 0
SMALL
GASTEIGER

@<TRIPOS>ATOM
      1 C          61.3842   88.5396   10.0585 C.ar    1  UNL1        0.0040
      2 C          62.0484   87.4828   10.8905 C.ar    1  UNL1        0.0719
      3 C          61.8265   86.1588   10.2214 C.ar    1  UNL1        0.1049
      4 N          61.0253   86.3972    8.9759 N.ar    1  UNL1       -0.2242
      5 N          60.5092   85.4646    7.9205 N.ar    1  UNL1       -0.1422
      6 C          59.7199   86.0035    6.7644 C.ar    1  UNL1        0.2211
      7 N          59.4466   87.4749    6.6638 N.ar    1  UNL1       -0.2060
      8 C          59.9626   88.4075    7.7192 C.ar    1  UNL1        0.1515
      9 C          60.7519   87.8687    8.8753 C.ar    1  UNL1        0.1107
     10 C          62.8020   87.7101   12.1673 C.ar    1  UNL1        0.2543
     11 N          63.4794   86.6554   12.9911 N.ar    1  UNL1       -0.1042
     12 N          64.1067   87.3255   14.1775 N.ar    1  UNL1       -0.0714
     13 C          63.8170   88.7945   14.0869 C.ar    1  UNL1        0.4173
     14 O          63.0107   89.0322   12.8446 O.2     1  UNL1       -0.3888
     15 O          64.2564   89.8418   15.0667 O.3     1  UNL1       -0.4326
     16 C          64.3855   91.2709   14.6294 C.3     1  UNL1        0.2103
     17 C          65.4964   91.6752   13.7061 C.3     1  UNL1        0.0467
     18 C          65.1800   92.2016   12.3376 C.3     1  UNL1        0.0208
     19 C          66.2910   92.6059   11.4143 C.3     1  UNL1        0.0687
     20 N          67.7181   92.4838   11.8595 N.3     1  UNL1       -0.2975
     21 C          68.0345   91.9574   13.2280 C.3     1  UNL1        0.0687
     22 C          66.9235   91.5531   14.1513 C.3     1  UNL1        0.0208
     23 H          68.1255   93.4172   11.8016 H       1  UNL1        0.1232
     24 C          62.5385   90.8667   10.0119 C.3     1  UNL1        0.0047
     25 C          61.3572   90.0093   10.3573 C.3     1  UNL1        0.0241
     26 C          60.1489   90.6215   11.0015 C.3     1  UNL1        0.0047
     27 N          59.6893   89.8790    7.6185 N.pl3   1  UNL1       -0.2949
     28 H          59.5315   90.4072    8.4342 H       1  UNL1        0.1537
     29 C          59.6563   90.5455    6.2752 C.ar    1  UNL1        0.0775
     30 C          60.9384   90.8684    5.5665 C.ar    1  UNL1        0.0237
     31 C          60.9055   91.5349    4.2232 C.ar    1  UNL1        0.0821
     32 C          59.5906   91.8787    3.5885 C.ar    1  UNL1        0.1468
     33 F          59.5577   92.5452    2.2451 F       1  UNL1       -0.2039
     34 C          58.3086   91.5559    4.2971 C.ar    1  UNL1        0.0607
     35 C          58.3414   90.8893    5.6405 C.ar    1  UNL1        0.1557
     36 F          57.0594   90.5665    6.3492 F       1  UNL1       -0.2028
     37 C          62.1875   91.8577    3.5145 C.2     1  UNL1        0.2480
     38 O          63.3956   90.9922    3.7181 O.2     1  UNL1       -0.2701
     39 N          62.2615   93.0461    2.6021 N.am    1  UNL1       -0.3024
     40 H          61.4686   93.6141    2.4685 H       1  UNL1        0.1497
     41 C          63.5434   93.3689    1.8934 C.3     1  UNL1        0.0720
     42 C          64.5601   93.0498    0.8377 C.3     1  UNL1        0.0213
     43 C          64.7472   94.2472    1.7216 C.3     1  UNL1        0.0213
@<TRIPOS>BOND
     1    24    25    1
     2    25    26    1
     3    25     1    1
     4     1     2   ar
     5     2    10    1
     6    10    11   ar
     7    11    12   ar
     8    12    13   ar
     9    13    15    1
    10    15    16    1
    11    16    17    1
    12    17    18    1
    13    18    19    1
    14    19    20    1
    15    20    21    1
    16    21    22    1
    17    13    14   ar
    18     2     3   ar
    19     3     4   ar
    20     4     5   ar
    21     5     6   ar
    22     6     7   ar
    23     7     8   ar
    24     8    27    1
    25    27    29    1
    26    29    30   ar
    27    30    31   ar
    28    31    37    1
    29    37    38    2
    30    37    39   am
    31    39    41    1
    32    41    42    1
    33    42    43    1
    34    31    32   ar
    35    32    33    1
    36    32    34   ar
    37    34    35   ar
    38    35    36    1
    39     8     9   ar
    40     9     1   ar
    41    14    10   ar
    42     9     4   ar
    43    22    17    1
    44    35    29   ar
    45    43    41    1
    46    20    23    1
    47    27    28    1
    48    39    40    1
@<TRIPOS>MOLECULE
*****
 43 48 0 0 0
SMALL
GASTEIGER

@<TRIPOS>ATOM
      1 C          61.3412   93.5646    1.9245 C.ar    1  UNL1        0.0040
      2 C          61.4417   92.4760    2.9515 C.ar    1  UNL1        0.0719
      3 C          62.8429   91.9411    2.9243 C.ar    1  UNL1        0.1049
      4 N          63.6083   92.6993    1.8805 N.ar    1  UNL1       -0.2242
      5 N          65.0304   92.6056    1.4130 N.ar    1  UNL1       -0.1422
      6 C          65.5244   93.5153    0.3275 C.ar    1  UNL1        0.2211
      7 N          64.5963   94.5186   -0.2905 N.ar    1  UNL1       -0.2060
      8 C          63.1742   94.6123    0.1771 C.ar    1  UNL1        0.1515
      9 C          62.6802   93.7026    1.2626 C.ar    1  UNL1        0.1107
     10 C          60.3354   92.0048    3.8482 C.ar    1  UNL1        0.2543
     11 N          58.8986   92.4291    3.7733 N.ar    1  UNL1       -0.1042
     12 N          58.1468   91.7132    4.8561 N.ar    1  UNL1       -0.0714
     13 C          59.1190   90.8464    5.6001 C.ar    1  UNL1        0.4173
     14 O          60.4716   91.0267    4.9772 O.2     1  UNL1       -0.3888
     15 O          58.7954   89.9558    6.7629 O.3     1  UNL1       -0.4326
     16 C          59.5972   88.7104    6.9996 C.3     1  UNL1        0.2103
     17 C          60.0304   88.3503    8.3898 C.3     1  UNL1        0.0467
     18 C          60.1189   89.4114    9.4463 C.3     1  UNL1        0.0208
     19 C          60.5521   89.0513   10.8365 C.3     1  UNL1        0.0687
     20 N          60.8968   87.6301   11.1703 N.3     1  UNL1       -0.2975
     21 C          60.8083   86.5690   10.1138 C.3     1  UNL1        0.0687
     22 C          60.3751   86.9291    8.7235 C.3     1  UNL1        0.0208
     23 H          60.2738   87.3458   11.9262 H       1  UNL1        0.1232
     24 C          59.0060   93.7719    0.8046 C.3     1  UNL1        0.0047
     25 C          60.1166   94.3733    1.6139 C.3     1  UNL1        0.0241
     26 C          60.0026   95.7833    2.1126 C.3     1  UNL1        0.0047
     27 N          62.2461   95.6157   -0.4408 N.pl3   1  UNL1       -0.2949
     28 H          62.2374   96.5445   -0.1145 H       1  UNL1        0.1537
     29 C          61.3311   95.2039   -1.5558 C.ar    1  UNL1        0.0775
     30 C          59.8970   95.6437   -1.5503 C.ar    1  UNL1        0.0237
     31 C          58.9820   95.2319   -2.6653 C.ar    1  UNL1        0.0821
     32 C          59.5011   94.3804   -3.7858 C.ar    1  UNL1        0.1468
     33 F          58.5860   93.9686   -4.9008 F       1  UNL1       -0.2039
     34 C          60.9351   93.9407   -3.7913 C.ar    1  UNL1        0.0607
     35 C          61.8502   94.3525   -2.6763 C.ar    1  UNL1        0.1557
     36 F          63.2843   93.9127   -2.6818 F       1  UNL1       -0.2028
     37 C          57.5478   95.6716   -2.6598 C.2     1  UNL1        0.2480
     38 O          57.0193   96.5202   -3.7781 O.2     1  UNL1       -0.2701
     39 N          56.6423   95.2627   -1.5361 N.am    1  UNL1       -0.3024
     40 H          56.9893   94.7058   -0.8021 H       1  UNL1        0.1497
     41 C          55.2083   95.7024   -1.5306 C.3     1  UNL1        0.0720
     42 C          54.1566   96.6992   -1.1427 C.3     1  UNL1        0.0213
     43 C          53.7760   95.4671   -1.9088 C.3     1  UNL1        0.0213
@<TRIPOS>BOND
     1    24    25    1
     2    25    26    1
     3    25     1    1
     4     1     2   ar
     5     2    10    1
     6    10    11   ar
     7    11    12   ar
     8    12    13   ar
     9    13    15    1
    10    15    16    1
    11    16    17    1
    12    17    18    1
    13    18    19    1
    14    19    20    1
    15    20    21    1
    16    21    22    1
    17    13    14   ar
    18     2     3   ar
    19     3     4   ar
    20     4     5   ar
    21     5     6   ar
    22     6     7   ar
    23     7     8   ar
    24     8    27    1
    25    27    29    1
    26    29    30   ar
    27    30    31   ar
    28    31    37    1
    29    37    38    2
    30    37    39   am
    31    39    41    1
    32    41    42    1
    33    42    43    1
    34    31    32   ar
    35    32    33    1
    36    32    34   ar
    37    34    35   ar
    38    35    36    1
    39     8     9   ar
    40     9     1   ar
    41    14    10   ar
    42     9     4   ar
    43    22    17    1
    44    35    29   ar
    45    43    41    1
    46    20    23    1
    47    27    28    1
    48    39    40    1
