@<TRIPOS>MOLECULE
*****
 23 27 0 0 0
SMALL
GASTEIGER

@<TRIPOS>ATOM
      1 O          61.8730   84.8581   11.1902 O.2     1  UNL1       -0.2699
      2 C          62.6503   85.5932   12.2417 C.2     1  UNL1        0.2505
      3 C          62.7476   87.0789   12.0598 C.ar    1  UNL1        0.0717
      4 C          62.0355   87.5707   10.8346 C.ar    1  UNL1        0.0174
      5 C          62.0346   89.0337   10.5042 C.ar    1  UNL1        0.0580
      6 CL         61.3225   89.5255    9.2789 Cl      1  UNL1       -0.0822
      7 C          62.7458   90.0052   11.3989 C.ar    1  UNL1        0.0145
      8 C          63.4579   89.5134   12.6241 C.ar    1  UNL1        0.0392
      9 C          64.2390   90.2289   13.6861 C.ar    1  UNL1        0.1216
     10 N          64.7227   89.2080   14.6728 N.ar    1  UNL1       -0.1677
     11 N          64.2405   87.8615   14.2207 N.ar    1  UNL1       -0.2490
     12 C          63.4587   88.0503   12.9546 C.ar    1  UNL1        0.0838
     13 C          64.4864   86.5556   14.8993 C.3     1  UNL1        0.1489
     14 C          64.0447   85.1735   14.5188 C.3     1  UNL1        0.1200
     15 N          63.2277   84.7451   13.3361 N.am    1  UNL1       -0.2742
     16 C          62.6816   81.7918   13.1454 C.3     1  UNL1        0.0917
     17 C          62.6673   81.8119   13.1735 C.3     1  UNL1        0.0921
     18 N          63.2480   80.9973   12.0309 N.3     1  UNL1       -0.2713
     19 C          62.3978   80.3302   13.0712 C.3     1  UNL1        0.0722
     20 C          61.8242   81.1347   14.1997 C.3     1  UNL1        0.0191
     21 C          62.1008   82.6064   14.2880 C.3     1  UNL1        0.0224
     22 C          62.4370   82.2072   13.6512 C.3     1  UNL1        0.0191
     23 C          62.9556   81.4797   12.6308 C.3     1  UNL1        0.0722
@<TRIPOS>BOND
     1     1     2    2
     2     2     3    1
     3     3     4   ar
     4     4     5   ar
     5     5     6    1
     6     5     7   ar
     7     7     8   ar
     8     8     9   ar
     9     9    10   ar
    10    10    11   ar
    11    11    12   ar
    12    11    13    1
    13    13    14    1
    14    14    15    1
    15    16    15    1
    16    16    17    1
    17    17    18    1
    18    18    19    1
    19    19    20    1
    20    20    21    1
    21    21    22    1
    22    22    23    1
    23    15     2   am
    24    21    16    1
    25    12     3   ar
    26    23    18    1
    27    12     8   ar
@<TRIPOS>MOLECULE
*****
 23 27 0 0 0
SMALL
GASTEIGER

@<TRIPOS>ATOM
      1 O          63.8179   85.6394   13.8108 O.2     1  UNL1       -0.2699
      2 C          63.1143   86.2595   12.6401 C.2     1  UNL1        0.2505
      3 C          63.2050   87.7536   12.5431 C.ar    1  UNL1        0.0717
      4 C          63.9989   88.3696   13.6568 C.ar    1  UNL1        0.0174
      5 C          64.1875   89.8567   13.7100 C.ar    1  UNL1        0.0580
      6 CL         64.9814   90.4727   14.8237 Cl      1  UNL1       -0.0822
      7 C          63.5821   90.7279   12.6495 C.ar    1  UNL1        0.0145
      8 C          62.7881   90.1119   11.5358 C.ar    1  UNL1        0.0392
      9 C          62.0780   90.7116   10.3585 C.ar    1  UNL1        0.1216
     10 N          61.4506   89.5951    9.5777 N.ar    1  UNL1       -0.1677
     11 N          61.7730   88.3053   10.2724 N.ar    1  UNL1       -0.2490
     12 C          62.5996   88.6247   11.4827 C.ar    1  UNL1        0.0838
     13 C          61.3531   86.9380    9.8476 C.3     1  UNL1        0.1489
     14 C          61.6292   85.6054   10.4786 C.3     1  UNL1        0.1200
     15 N          62.4129   85.3035   11.7213 N.am    1  UNL1       -0.2742
     16 C          62.5948   82.3911   12.4574 C.3     1  UNL1        0.0917
     17 C          62.6106   82.4037   12.4259 C.3     1  UNL1        0.0921
     18 N          61.9684   81.8948   13.7047 N.3     1  UNL1       -0.2713
     19 C          62.6975   80.9444   12.8019 C.3     1  UNL1        0.0722
     20 C          63.3317   81.4469   11.5389 C.3     1  UNL1        0.0191
     21 C          63.2369   82.9000   11.1787 C.3     1  UNL1        0.0224
     22 C          62.8734   82.6713   11.8813 C.3     1  UNL1        0.0191
     23 C          62.2999   82.2169   13.0232 C.3     1  UNL1        0.0722
@<TRIPOS>BOND
     1     1     2    2
     2     2     3    1
     3     3     4   ar
     4     4     5   ar
     5     5     6    1
     6     5     7   ar
     7     7     8   ar
     8     8     9   ar
     9     9    10   ar
    10    10    11   ar
    11    11    12   ar
    12    11    13    1
    13    13    14    1
    14    14    15    1
    15    16    15    1
    16    16    17    1
    17    17    18    1
    18    18    19    1
    19    19    20    1
    20    20    21    1
    21    21    22    1
    22    22    23    1
    23    15     2   am
    24    21    16    1
    25    12     3   ar
    26    23    18    1
    27    12     8   ar
@<TRIPOS>MOLECULE
*****
 23 27 0 0 0
SMALL
GASTEIGER

@<TRIPOS>ATOM
      1 O          64.6234   88.3212   14.4994 O.2     1  UNL1       -0.2699
      2 C          63.8955   88.8685   13.3074 C.2     1  UNL1        0.2505
      3 C          63.1710   87.8591   12.4672 C.ar    1  UNL1        0.0717
      4 C          63.3081   86.4566   12.9813 C.ar    1  UNL1        0.0174
      5 C          62.6436   85.3239   12.2568 C.ar    1  UNL1        0.0580
      6 CL         62.7808   83.9214   12.7709 Cl      1  UNL1       -0.0822
      7 C          61.8418   85.5935   11.0180 C.ar    1  UNL1        0.0145
      8 C          61.7046   86.9959   10.5039 C.ar    1  UNL1        0.0392
      9 C          60.9836   87.5639    9.3175 C.ar    1  UNL1        0.1216
     10 N          61.2027   89.0478    9.3088 N.ar    1  UNL1       -0.1677
     11 N          62.0590   89.3969   10.4899 N.ar    1  UNL1       -0.2490
     12 C          62.3692   88.1287   11.2285 C.ar    1  UNL1        0.0838
     13 C          62.5280   90.7597   10.8757 C.3     1  UNL1        0.1489
     14 C          63.3799   91.1947   12.0312 C.3     1  UNL1        0.1200
     15 N          63.9885   90.3531   13.1134 N.am    1  UNL1       -0.2742
     16 C          65.6075   91.8531   15.1592 C.3     1  UNL1        0.0917
     17 C          65.6236   91.8406   15.1278 C.3     1  UNL1        0.0921
     18 N          64.9689   92.3495   16.4002 N.3     1  UNL1       -0.2713
     19 C          66.4291   92.5938   16.1586 C.3     1  UNL1        0.0722
     20 C          67.0757   92.0912   14.9019 C.3     1  UNL1        0.0191
     21 C          66.2621   91.3442   13.8868 C.3     1  UNL1        0.0224
     22 C          65.8636   91.6004   14.5603 C.3     1  UNL1        0.0191
     23 C          65.2790   92.0548   15.6966 C.3     1  UNL1        0.0722
@<TRIPOS>BOND
     1     1     2    2
     2     2     3    1
     3     3     4   ar
     4     4     5   ar
     5     5     6    1
     6     5     7   ar
     7     7     8   ar
     8     8     9   ar
     9     9    10   ar
    10    10    11   ar
    11    11    12   ar
    12    11    13    1
    13    13    14    1
    14    14    15    1
    15    16    15    1
    16    16    17    1
    17    17    18    1
    18    18    19    1
    19    19    20    1
    20    20    21    1
    21    21    22    1
    22    22    23    1
    23    15     2   am
    24    21    16    1
    25    12     3   ar
    26    23    18    1
    27    12     8   ar
@<TRIPOS>MOLECULE
*****
 23 27 0 0 0
SMALL
GASTEIGER

@<TRIPOS>ATOM
      1 O          62.8986   90.2725   12.3318 O.2     1  UNL1       -0.2699
      2 C          63.1999   88.8619   12.7435 C.2     1  UNL1        0.2505
      3 C          62.6847   87.7922   11.8269 C.ar    1  UNL1        0.0717
      4 C          61.9466   88.3377   10.6404 C.ar    1  UNL1        0.0174
      5 C          61.3656   87.4011    9.6231 C.ar    1  UNL1        0.0580
      6 CL         60.6274   87.9467    8.4366 Cl      1  UNL1       -0.0822
      7 C          61.5225   85.9189    9.7921 C.ar    1  UNL1        0.0145
      8 C          62.2606   85.3734   10.9786 C.ar    1  UNL1        0.0392
      9 C          62.5725   83.9706   11.4085 C.ar    1  UNL1        0.1216
     10 N          63.3464   84.0403   12.6915 N.ar    1  UNL1       -0.1677
     11 N          63.5127   85.4862   13.0546 N.ar    1  UNL1       -0.2490
     12 C          62.8417   86.3101   11.9959 C.ar    1  UNL1        0.0838
     13 C          64.2182   86.0259   14.2535 C.3     1  UNL1        0.1489
     14 C          64.4297   87.4455   14.6895 C.3     1  UNL1        0.1200
     15 N          63.9765   88.7076   14.0176 N.am    1  UNL1       -0.2742
     16 C          64.7315   91.2604   15.4210 C.3     1  UNL1        0.0917
     17 C          64.7536   91.2462   15.3944 C.3     1  UNL1        0.0921
     18 N          63.8544   91.8219   16.4744 N.3     1  UNL1       -0.2713
     19 C          65.1256   92.5262   16.1028 C.3     1  UNL1        0.0722
     20 C          66.0138   91.9576   15.0361 C.3     1  UNL1        0.0191
     21 C          65.6307   90.6847   14.3410 C.3     1  UNL1        0.0224
     22 C          65.1119   90.9578   14.9192 C.3     1  UNL1        0.0191
     23 C          64.3089   91.4719   15.8837 C.3     1  UNL1        0.0722
@<TRIPOS>BOND
     1     1     2    2
     2     2     3    1
     3     3     4   ar
     4     4     5   ar
     5     5     6    1
     6     5     7   ar
     7     7     8   ar
     8     8     9   ar
     9     9    10   ar
    10    10    11   ar
    11    11    12   ar
    12    11    13    1
    13    13    14    1
    14    14    15    1
    15    16    15    1
    16    16    17    1
    17    17    18    1
    18    18    19    1
    19    19    20    1
    20    20    21    1
    21    21    22    1
    22    22    23    1
    23    15     2   am
    24    21    16    1
    25    12     3   ar
    26    23    18    1
    27    12     8   ar
@<TRIPOS>MOLECULE
*****
 23 27 0 0 0
SMALL
GASTEIGER

@<TRIPOS>ATOM
      1 O          64.2202   87.5977   14.6786 O.2     1  UNL1       -0.2699
      2 C          63.5842   88.0035   13.3821 C.2     1  UNL1        0.2505
      3 C          63.1150   86.8790   12.5072 C.ar    1  UNL1        0.0717
      4 C          63.3719   85.5249   13.0991 C.ar    1  UNL1        0.0174
      5 C          62.9634   84.2901   12.3520 C.ar    1  UNL1        0.0580
      6 CL         63.2203   82.9359   12.9439 Cl      1  UNL1       -0.0822
      7 C          62.2979   84.4093   11.0130 C.ar    1  UNL1        0.0145
      8 C          62.0410   85.7634   10.4211 C.ar    1  UNL1        0.0392
      9 C          61.4082   86.1908    9.1300 C.ar    1  UNL1        0.1216
     10 N          61.4257   87.6898    9.0792 N.ar    1  UNL1       -0.1677
     11 N          62.0693   88.1889   10.3389 N.ar    1  UNL1       -0.2490
     12 C          62.4495   86.9983   11.1682 C.ar    1  UNL1        0.0838
     13 C          62.2981   89.6144   10.7154 C.3     1  UNL1        0.1489
     14 C          62.9291   90.1971   11.9452 C.3     1  UNL1        0.1200
     15 N          63.5015   89.4802   13.1319 N.am    1  UNL1       -0.2742
     16 C          64.6295   91.2499   15.2889 C.3     1  UNL1        0.0917
     17 C          64.6494   91.2427   15.2580 C.3     1  UNL1        0.0921
     18 N          63.8422   91.5332   16.5112 N.3     1  UNL1       -0.2713
     19 C          65.2085   92.1293   16.3442 C.3     1  UNL1        0.0722
     20 C          66.0058   91.8424   15.1065 C.3     1  UNL1        0.0191
     21 C          65.4368   90.9593   14.0357 C.3     1  UNL1        0.0224
     22 C          64.9623   91.0878   14.6963 C.3     1  UNL1        0.0191
     23 C          64.2414   91.3472   15.8154 C.3     1  UNL1        0.0722
@<TRIPOS>BOND
     1     1     2    2
     2     2     3    1
     3     3     4   ar
     4     4     5   ar
     5     5     6    1
     6     5     7   ar
     7     7     8   ar
     8     8     9   ar
     9     9    10   ar
    10    10    11   ar
    11    11    12   ar
    12    11    13    1
    13    13    14    1
    14    14    15    1
    15    16    15    1
    16    16    17    1
    17    17    18    1
    18    18    19    1
    19    19    20    1
    20    20    21    1
    21    21    22    1
    22    22    23    1
    23    15     2   am
    24    21    16    1
    25    12     3   ar
    26    23    18    1
    27    12     8   ar
@<TRIPOS>MOLECULE
*****
 23 27 0 0 0
SMALL
GASTEIGER

@<TRIPOS>ATOM
      1 O          63.1762   91.2248    9.6880 O.2     1  UNL1       -0.2699
      2 C          63.6754   91.0033   11.0851 C.2     1  UNL1        0.2505
      3 C          64.6239   92.0404   11.6094 C.ar    1  UNL1        0.0717
      4 C          64.9072   93.1333   10.6218 C.ar    1  UNL1        0.0174
      5 C          65.8372   94.2518   10.9874 C.ar    1  UNL1        0.0580
      6 CL         66.1206   95.3448    9.9998 Cl      1  UNL1       -0.0822
      7 C          66.4840   94.2776   12.3406 C.ar    1  UNL1        0.0145
      8 C          66.2007   93.1847   13.3282 C.ar    1  UNL1        0.0392
      9 C          66.6876   92.9444   14.7264 C.ar    1  UNL1        0.1216
     10 N          66.0585   91.6773   15.2250 N.ar    1  UNL1       -0.1677
     11 N          65.1827   91.1344   14.1349 N.ar    1  UNL1       -0.2490
     12 C          65.2706   92.0661   12.9625 C.ar    1  UNL1        0.0838
     13 C          64.3627   89.8892   14.1910 C.3     1  UNL1        0.1489
     14 C          63.4660   89.2782   13.1553 C.3     1  UNL1        0.1200
     15 N          63.1601   89.7740   11.7731 N.am    1  UNL1       -0.2742
     16 C          61.2603   88.0680   10.1803 C.3     1  UNL1        0.0917
     17 C          61.2885   88.0523   10.1993 C.3     1  UNL1        0.0921
     18 N          60.1456   88.6913    9.4298 N.3     1  UNL1       -0.2713
     19 C          60.3315   87.2032    9.3982 C.3     1  UNL1        0.0722
     20 C          61.4602   86.5720   10.1581 C.3     1  UNL1        0.0191
     21 C          62.4031   87.4290   10.9498 C.3     1  UNL1        0.0224
     22 C          61.7994   87.8204   10.5494 C.3     1  UNL1        0.0191
     23 C          60.7788   88.3910    9.8622 C.3     1  UNL1        0.0722
@<TRIPOS>BOND
     1     1     2    2
     2     2     3    1
     3     3     4   ar
     4     4     5   ar
     5     5     6    1
     6     5     7   ar
     7     7     8   ar
     8     8     9   ar
     9     9    10   ar
    10    10    11   ar
    11    11    12   ar
    12    11    13    1
    13    13    14    1
    14    14    15    1
    15    16    15    1
    16    16    17    1
    17    17    18    1
    18    18    19    1
    19    19    20    1
    20    20    21    1
    21    21    22    1
    22    22    23    1
    23    15     2   am
    24    21    16    1
    25    12     3   ar
    26    23    18    1
    27    12     8   ar
@<TRIPOS>MOLECULE
*****
 23 27 0 0 0
SMALL
GASTEIGER

@<TRIPOS>ATOM
      1 O          61.8210   88.8960   10.4629 O.2     1  UNL1       -0.2699
      2 C          62.2652   87.7143   11.2731 C.2     1  UNL1        0.2505
      3 C          63.1061   88.0282   12.4749 C.ar    1  UNL1        0.0717
      4 C          63.3556   89.4966   12.6526 C.ar    1  UNL1        0.0174
      5 C          64.1800   89.9829   13.8075 C.ar    1  UNL1        0.0580
      6 CL         64.4295   91.4513   13.9852 Cl      1  UNL1       -0.0822
      7 C          64.7549   89.0008   14.7848 C.ar    1  UNL1        0.0145
      8 C          64.5054   87.5324   14.6071 C.ar    1  UNL1        0.0392
      9 C          64.9388   86.3372   15.4030 C.ar    1  UNL1        0.1216
     10 N          64.3823   85.1122   14.7400 N.ar    1  UNL1       -0.1677
     11 N          63.6049   85.5503   13.5342 N.ar    1  UNL1       -0.2490
     12 C          63.6810   87.0461   13.4521 C.ar    1  UNL1        0.0838
     13 C          62.8787   84.6669   12.5759 C.3     1  UNL1        0.1489
     14 C          62.0828   85.0188   11.3541 C.3     1  UNL1        0.1200
     15 N          61.8098   86.3750   10.7743 N.am    1  UNL1       -0.2742
     16 C          60.1246   86.3979    8.2810 C.3     1  UNL1        0.0917
     17 C          60.1586   86.3823    8.2807 C.3     1  UNL1        0.0921
     18 N          58.7786   87.0161    8.2942 N.3     1  UNL1       -0.2713
     19 C          59.3075   86.3976    7.0342 C.3     1  UNL1        0.0722
     20 C          60.6706   85.7716    7.0208 C.3     1  UNL1        0.0191
     21 C          61.5047   85.7641    8.2675 C.3     1  UNL1        0.0224
     22 C          60.7638   86.1189    8.3236 C.3     1  UNL1        0.0191
     23 C          59.5313   86.6850    8.3356 C.3     1  UNL1        0.0722
@<TRIPOS>BOND
     1     1     2    2
     2     2     3    1
     3     3     4   ar
     4     4     5   ar
     5     5     6    1
     6     5     7   ar
     7     7     8   ar
     8     8     9   ar
     9     9    10   ar
    10    10    11   ar
    11    11    12   ar
    12    11    13    1
    13    13    14    1
    14    14    15    1
    15    16    15    1
    16    16    17    1
    17    17    18    1
    18    18    19    1
    19    19    20    1
    20    20    21    1
    21    21    22    1
    22    22    23    1
    23    15     2   am
    24    21    16    1
    25    12     3   ar
    26    23    18    1
    27    12     8   ar
@<TRIPOS>MOLECULE
*****
 23 27 0 0 0
SMALL
GASTEIGER

@<TRIPOS>ATOM
      1 O          62.2458   85.7316   11.2745 O.2     1  UNL1       -0.2699
      2 C          62.4557   87.2154   11.3406 C.2     1  UNL1        0.2505
      3 C          63.1914   87.7155   12.5483 C.ar    1  UNL1        0.0717
      4 C          63.5923   86.6192   13.4903 C.ar    1  UNL1        0.0174
      5 C          64.3373   86.9479   14.7500 C.ar    1  UNL1        0.0580
      6 CL         64.7382   85.8516   15.6921 Cl      1  UNL1       -0.0822
      7 C          64.6815   88.3730   15.0677 C.ar    1  UNL1        0.0145
      8 C          64.2806   89.4692   14.1257 C.ar    1  UNL1        0.0392
      9 C          64.4797   90.9552   14.1721 C.ar    1  UNL1        0.1216
     10 N          63.8578   91.5449   12.9411 N.ar    1  UNL1       -0.1677
     11 N          63.2743   90.4234   12.1338 N.ar    1  UNL1       -0.2490
     12 C          63.5356   89.1405   12.8659 C.ar    1  UNL1        0.0838
     13 C          62.5575   90.5456   10.8309 C.3     1  UNL1        0.1489
     14 C          61.9473   89.4849    9.9634 C.3     1  UNL1        0.1200
     15 N          61.9019   88.0028   10.1902 N.am    1  UNL1       -0.2742
     16 C          60.5140   86.4104    8.0467 C.3     1  UNL1        0.0917
     17 C          60.4950   86.4355    8.0670 C.3     1  UNL1        0.0921
     18 N          61.2677   85.4171    7.2471 N.3     1  UNL1       -0.2713
     19 C          59.8057   85.6330    6.9902 C.3     1  UNL1        0.0722
     20 C          59.0425   86.6389    7.7999 C.3     1  UNL1        0.0191
     21 C          59.7412   87.4288    8.8666 C.3     1  UNL1        0.0224
     22 C          60.2014   86.8889    8.4486 C.3     1  UNL1        0.0191
     23 C          60.8915   85.9794    7.7165 C.3     1  UNL1        0.0722
@<TRIPOS>BOND
     1     1     2    2
     2     2     3    1
     3     3     4   ar
     4     4     5   ar
     5     5     6    1
     6     5     7   ar
     7     7     8   ar
     8     8     9   ar
     9     9    10   ar
    10    10    11   ar
    11    11    12   ar
    12    11    13    1
    13    13    14    1
    14    14    15    1
    15    16    15    1
    16    16    17    1
    17    17    18    1
    18    18    19    1
    19    19    20    1
    20    20    21    1
    21    21    22    1
    22    22    23    1
    23    15     2   am
    24    21    16    1
    25    12     3   ar
    26    23    18    1
    27    12     8   ar
@<TRIPOS>MOLECULE
*****
 23 27 0 0 0
SMALL
GASTEIGER

@<TRIPOS>ATOM
      1 O          61.2796   84.9865   10.0753 O.2     1  UNL1       -0.2699
      2 C          61.9633   85.9258   11.0243 C.2     1  UNL1        0.2505
      3 C          62.7785   85.2798   12.1051 C.ar    1  UNL1        0.0717
      4 C          62.7622   83.7813   12.0400 C.ar    1  UNL1        0.0174
      5 C          63.5278   82.9784   13.0495 C.ar    1  UNL1        0.0580
      6 CL         63.5115   81.4799   12.9844 Cl      1  UNL1       -0.0822
      7 C          64.3099   83.6740   14.1241 C.ar    1  UNL1        0.0145
      8 C          64.3262   85.1725   14.1891 C.ar    1  UNL1        0.0392
      9 C          65.0011   86.1291   15.1268 C.ar    1  UNL1        0.1216
     10 N          64.6526   87.5232   14.6968 N.ar    1  UNL1       -0.1677
     11 N          63.7622   87.4283   13.4934 N.ar    1  UNL1       -0.2490
     12 C          63.5605   85.9754   13.1796 C.ar    1  UNL1        0.0838
     13 C          63.1731   88.5680   12.7317 C.3     1  UNL1        0.1489
     14 C          62.2797   88.5626   11.5267 C.3     1  UNL1        0.1200
     15 N          61.7413   87.3868   10.7669 N.am    1  UNL1       -0.2742
     16 C          59.9852   88.0617    8.4180 C.3     1  UNL1        0.0917
     17 C          60.0045   88.0885    8.4355 C.3     1  UNL1        0.0921
     18 N          59.2222   86.9978    7.7250 N.3     1  UNL1       -0.2713
     19 C          59.1216   88.4192    7.2567 C.3     1  UNL1        0.0722
     20 C          59.8941   89.4966    7.9585 C.3     1  UNL1        0.0191
     21 C          60.7674   89.1524    9.1286 C.3     1  UNL1        0.0224
     22 C          60.3630   88.5278    8.7759 C.3     1  UNL1        0.0191
     23 C          59.6645   87.5537    8.1413 C.3     1  UNL1        0.0722
@<TRIPOS>BOND
     1     1     2    2
     2     2     3    1
     3     3     4   ar
     4     4     5   ar
     5     5     6    1
     6     5     7   ar
     7     7     8   ar
     8     8     9   ar
     9     9    10   ar
    10    10    11   ar
    11    11    12   ar
    12    11    13    1
    13    13    14    1
    14    14    15    1
    15    16    15    1
    16    16    17    1
    17    17    18    1
    18    18    19    1
    19    19    20    1
    20    20    21    1
    21    21    22    1
    22    22    23    1
    23    15     2   am
    24    21    16    1
    25    12     3   ar
    26    23    18    1
    27    12     8   ar
