@<TRIPOS>MOLECULE
*****
 54 58 0 0 0
SMALL
GASTEIGER

@<TRIPOS>ATOM
      1 C          63.8633   87.1926   13.8674 C.3     1  UNL1        0.0760
      2 C          62.5376   86.1823   11.8744 C.2     1  UNL1        0.2406
      3 O          61.6733   85.4211   12.8353 O.2     1  UNL1       -0.2733
      4 N          63.6327   87.0681   12.3905 N.am    1  UNL1       -0.3043
      5 H          64.2000   87.5678   11.7598 H       1  UNL1        0.1494
      6 C          62.3617   85.2380    8.1137 C.3     1  UNL1        0.0763
      7 C          62.8341   84.9681    9.5116 C.3     1  UNL1        0.0467
      8 C          62.3070   86.0578   10.3975 C.3     1  UNL1        0.1544
      9 N          61.5089   87.0011    9.5471 N.am    1  UNL1       -0.2558
     10 C          60.8012   88.2346   10.0244 C.2     1  UNL1        0.3079
     11 O          60.8566   88.6176   11.4737 O.2     1  UNL1       -0.2523
     12 N          60.0383   89.0850    9.0526 N.am    1  UNL1       -0.2566
     13 C          59.3306   90.3185    9.5298 C.3     1  UNL1        0.1168
     14 C          61.5427   86.4945    8.1357 C.3     1  UNL1        0.1111
     15 C          61.6874   84.3647    5.7616 C.3     1  UNL1        0.0859
     16 N          62.6565   84.3988    6.9060 N.3     1  UNL1       -0.2959
     17 H          63.5457   84.7271    6.5291 H       1  UNL1        0.1233
     18 C          59.9830   88.7020    7.6033 C.3     1  UNL1        0.1413
     19 C          59.6936   89.7431    6.5629 C.ar    1  UNL1        0.0858
     20 C          58.3609   90.3783    6.2981 C.ar    1  UNL1        0.0530
     21 S          58.5296   91.3595    5.1761 S.2     1  UNL1       -0.0705
     22 C          59.9669   91.3307    4.7475 C.ar    1  UNL1        0.0875
     23 N          60.6862   90.3317    5.6045 N.ar    1  UNL1       -0.2453
     24 C          60.5774   92.1560    3.6540 C.3     1  UNL1        0.0465
     25 C          62.0317   92.0014    3.3205 C.3     1  UNL1        0.0069
     26 C          59.7338   93.1360    2.8937 C.3     1  UNL1        0.0069
     27 C          63.4650   88.4478   14.5855 C.3     1  UNL1        0.0216
     28 C          63.2442   89.7152   13.8142 C.3     1  UNL1        0.0217
     29 C          64.2143   90.8518   13.9454 C.3     1  UNL1        0.0792
     30 N          64.4002   91.8140   12.8098 N.am    1  UNL1       -0.2720
     31 C          64.0465   91.4015   11.4117 C.2     1  UNL1        0.4019
     32 O          63.5070   90.0267   11.1491 O.2     1  UNL1       -0.2264
     33 H          64.7543   92.7163   12.9822 H       1  UNL1        0.1527
     34 O          64.2323   92.3637   10.2761 O.3     1  UNL1       -0.4291
     35 C          65.1192   93.5615   10.4455 C.3     1  UNL1        0.2447
     36 C          66.5667   93.4835   10.0600 C.ar    1  UNL1        0.0714
     37 C          67.4025   94.6148    9.5387 C.ar    1  UNL1        0.1053
     38 N          68.7849   94.0910    9.2846 N.ar    1  UNL1       -0.2350
     39 C          68.8035   92.6361    9.6488 C.ar    1  UNL1        0.1343
     40 S          67.4326   92.2606   10.1280 S.2     1  UNL1       -0.0652
     41 C          64.9986   91.0260   15.2121 C.3     1  UNL1        0.0460
     42 C          66.3337   91.7090   15.1797 C.ar    1  UNL1       -0.0205
     43 C          67.3389   91.3415   14.1288 C.ar    1  UNL1       -0.0042
     44 C          68.6739   92.0245   14.0964 C.ar    1  UNL1       -0.0003
     45 C          69.0038   93.0751   15.1149 C.ar    1  UNL1       -0.0000
     46 C          67.9986   93.4427   16.1658 C.ar    1  UNL1       -0.0003
     47 C          66.6635   92.7597   16.1982 C.ar    1  UNL1       -0.0042
     48 C          64.4923   86.0618   14.6262 C.3     1  UNL1        0.0459
     49 C          64.0584   84.6500   14.3645 C.ar    1  UNL1       -0.0205
     50 C          62.9568   84.0406   15.1800 C.ar    1  UNL1       -0.0042
     51 C          62.5229   82.6287   14.9183 C.ar    1  UNL1       -0.0003
     52 C          63.1906   81.8264   13.8411 C.ar    1  UNL1       -0.0000
     53 C          64.2922   82.4358   13.0256 C.ar    1  UNL1       -0.0003
     54 C          64.7261   83.8476   13.2873 C.ar    1  UNL1       -0.0042
@<TRIPOS>BOND
     1    15    16    1
     2     6    16    1
     3     6     7    1
     4     7     8    1
     5     8     2    1
     6     2     3    2
     7     2     4   am
     8     4     1    1
     9     1    27    1
    10    27    28    1
    11    29    28    1
    12    29    41    1
    13    41    42    1
    14    42    43   ar
    15    43    44   ar
    16    44    45   ar
    17    45    46   ar
    18    46    47   ar
    19    29    30    1
    20    30    31   am
    21    31    32    2
    22    31    34    1
    23    34    35    1
    24    35    36    1
    25    36    37   ar
    26    37    38   ar
    27    38    39   ar
    28    39    40   ar
    29     1    48    1
    30    48    49    1
    31    49    50   ar
    32    50    51   ar
    33    51    52   ar
    34    52    53   ar
    35    53    54   ar
    36     8     9    1
    37     9    10   am
    38    10    11    2
    39    10    12   am
    40    12    13    1
    41    12    18    1
    42    18    19    1
    43    19    20   ar
    44    20    21   ar
    45    21    22   ar
    46    22    24    1
    47    24    25    1
    48    24    26    1
    49    22    23   ar
    50     9    14    1
    51    14     6    1
    52    47    42   ar
    53    40    36   ar
    54    54    49   ar
    55    23    19   ar
    56    16    17    1
    57     4     5    1
    58    30    33    1
@<TRIPOS>MOLECULE
*****
 54 58 0 0 0
SMALL
GASTEIGER

@<TRIPOS>ATOM
      1 C          63.2686   85.9584   13.0522 C.3     1  UNL1        0.0760
      2 C          63.7731   88.0666   14.4845 C.2     1  UNL1        0.2406
      3 O          63.2452   87.3662   15.7014 O.2     1  UNL1       -0.2733
      4 N          63.7848   87.3627   13.1599 N.am    1  UNL1       -0.3043
      5 H          64.1312   87.8224   12.3612 H       1  UNL1        0.1494
      6 C          65.2881   91.5022   15.4678 C.3     1  UNL1        0.0763
      7 C          64.9235   90.0866   15.8042 C.3     1  UNL1        0.0467
      8 C          64.2893   89.4708   14.5922 C.3     1  UNL1        0.1544
      9 N          64.2620   90.5059   13.5069 N.am    1  UNL1       -0.2558
     10 C          63.7136   90.3184   12.1234 C.2     1  UNL1        0.3079
     11 O          63.1237   88.9987   11.7229 O.2     1  UNL1       -0.2523
     12 N          63.7552   91.4506   11.1403 N.am    1  UNL1       -0.2566
     13 C          63.2069   91.2631    9.7568 C.3     1  UNL1        0.1168
     14 C          64.8792   91.7614   14.0480 C.3     1  UNL1        0.1111
     15 C          67.3952   92.8286   16.2097 C.3     1  UNL1        0.0859
     16 N          65.9460   92.4859   16.3894 N.3     1  UNL1       -0.2959
     17 H          65.4248   93.3590   16.3088 H       1  UNL1        0.1233
     18 C          64.3451   92.7703   11.5409 C.3     1  UNL1        0.1413
     19 C          65.3602   93.4364   10.6599 C.ar    1  UNL1        0.0858
     20 C          66.7278   92.9116   10.3377 C.ar    1  UNL1        0.0530
     21 S          67.3987   93.8951    9.4251 S.2     1  UNL1       -0.0705
     22 C          66.4455   95.0279    9.1835 C.ar    1  UNL1        0.0875
     23 N          65.1857   94.7444    9.9466 N.ar    1  UNL1       -0.2453
     24 C          66.7064   96.2325    8.3287 C.3     1  UNL1        0.0465
     25 C          65.5876   96.8533    7.5460 C.3     1  UNL1        0.0069
     26 C          68.0862   96.8165    8.2567 C.3     1  UNL1        0.0069
     27 C          62.0716   85.6628   12.1980 C.3     1  UNL1        0.0216
     28 C          61.4713   86.7434   11.3483 C.3     1  UNL1        0.0217
     29 C          61.8669   86.8709    9.9070 C.3     1  UNL1        0.0792
     30 N          61.4182   88.0588    9.1084 N.am    1  UNL1       -0.2720
     31 C          59.9789   88.1928    8.7077 C.2     1  UNL1        0.4019
     32 O          58.9884   87.1390    9.1055 O.2     1  UNL1       -0.2264
     33 H          62.0684   88.7504    8.8473 H       1  UNL1        0.1527
     34 O          59.5302   89.3807    7.9091 O.3     1  UNL1       -0.4291
     35 C          59.3597   89.2645    6.4234 C.3     1  UNL1        0.2447
     36 C          59.1215   90.4938    5.5975 C.ar    1  UNL1        0.0714
     37 C          57.7974   91.1613    5.3714 C.ar    1  UNL1        0.1053
     38 N          58.0232   92.3514    4.4867 N.ar    1  UNL1       -0.2350
     39 C          59.4870   92.4195    4.1661 C.ar    1  UNL1        0.1343
     40 S          60.1658   91.2715    4.8526 S.2     1  UNL1       -0.0652
     41 C          62.7111   85.8107    9.2643 C.3     1  UNL1        0.0460
     42 C          62.3295   85.2590    7.9226 C.ar    1  UNL1       -0.0205
     43 C          60.8825   85.0982    7.5617 C.ar    1  UNL1       -0.0042
     44 C          60.5009   84.5466    6.2201 C.ar    1  UNL1       -0.0003
     45 C          61.5664   84.1558    5.2393 C.ar    1  UNL1       -0.0000
     46 C          63.0134   84.3165    5.6001 C.ar    1  UNL1       -0.0003
     47 C          63.3949   84.8682    6.9417 C.ar    1  UNL1       -0.0042
     48 C          63.9494   84.8498   13.7989 C.3     1  UNL1        0.0459
     49 C          63.4580   83.4394   13.6596 C.ar    1  UNL1       -0.0205
     50 C          62.3486   82.9415   14.5379 C.ar    1  UNL1       -0.0042
     51 C          61.8572   81.5312   14.3986 C.ar    1  UNL1       -0.0003
     52 C          62.4751   80.6187   13.3810 C.ar    1  UNL1       -0.0000
     53 C          63.5845   81.1166   12.5026 C.ar    1  UNL1       -0.0003
     54 C          64.0759   82.5270   12.6419 C.ar    1  UNL1       -0.0042
@<TRIPOS>BOND
     1    15    16    1
     2     6    16    1
     3     6     7    1
     4     7     8    1
     5     8     2    1
     6     2     3    2
     7     2     4   am
     8     4     1    1
     9     1    27    1
    10    27    28    1
    11    29    28    1
    12    29    41    1
    13    41    42    1
    14    42    43   ar
    15    43    44   ar
    16    44    45   ar
    17    45    46   ar
    18    46    47   ar
    19    29    30    1
    20    30    31   am
    21    31    32    2
    22    31    34    1
    23    34    35    1
    24    35    36    1
    25    36    37   ar
    26    37    38   ar
    27    38    39   ar
    28    39    40   ar
    29     1    48    1
    30    48    49    1
    31    49    50   ar
    32    50    51   ar
    33    51    52   ar
    34    52    53   ar
    35    53    54   ar
    36     8     9    1
    37     9    10   am
    38    10    11    2
    39    10    12   am
    40    12    13    1
    41    12    18    1
    42    18    19    1
    43    19    20   ar
    44    20    21   ar
    45    21    22   ar
    46    22    24    1
    47    24    25    1
    48    24    26    1
    49    22    23   ar
    50     9    14    1
    51    14     6    1
    52    47    42   ar
    53    40    36   ar
    54    54    49   ar
    55    23    19   ar
    56    16    17    1
    57     4     5    1
    58    30    33    1
@<TRIPOS>MOLECULE
*****
 54 58 0 0 0
SMALL
GASTEIGER

@<TRIPOS>ATOM
      1 C          60.7254   88.9312    9.2187 C.3     1  UNL1        0.0760
      2 C          59.7045   89.4229    6.8808 C.2     1  UNL1        0.2406
      3 O          60.1160   88.0581    6.4140 O.2     1  UNL1       -0.2733
      4 N          60.0091   89.8595    8.2832 N.am    1  UNL1       -0.3043
      5 H          59.7390   90.7552    8.5895 H       1  UNL1        0.1494
      6 C          57.2339   91.6072    4.8336 C.3     1  UNL1        0.0763
      7 C          57.5121   90.6177    5.9261 C.3     1  UNL1        0.0467
      8 C          58.9882   90.3512    5.9452 C.3     1  UNL1        0.1544
      9 N          59.6221   91.1759    4.8645 N.am    1  UNL1       -0.2558
     10 C          61.0837   91.2172    4.5296 C.2     1  UNL1        0.3079
     11 O          62.0554   90.3809    5.3084 O.2     1  UNL1       -0.2523
     12 N          61.5735   92.0947    3.4161 N.am    1  UNL1       -0.2566
     13 C          63.0351   92.1359    3.0812 C.3     1  UNL1        0.1168
     14 C          58.5379   91.9522    4.1775 C.3     1  UNL1        0.1111
     15 C          54.6426   91.5091    4.9929 C.3     1  UNL1        0.0859
     16 N          55.8879   92.1554    4.4624 N.3     1  UNL1       -0.2959
     17 H          55.8702   93.1271    4.7720 H       1  UNL1        0.1233
     18 C          60.6017   92.9310    2.6374 C.3     1  UNL1        0.1413
     19 C          61.0329   93.5875    1.3595 C.ar    1  UNL1        0.0858
     20 C          61.4044   95.0309    1.1916 C.ar    1  UNL1        0.0530
     21 S          61.7696   95.2515   -0.2465 S.2     1  UNL1       -0.0705
     22 C          61.6237   93.9441   -0.9674 C.ar    1  UNL1        0.0875
     23 N          61.1684   92.9157    0.0251 N.ar    1  UNL1       -0.2453
     24 C          61.8868   93.7069   -2.4249 C.3     1  UNL1        0.0465
     25 C          60.7626   93.7947   -3.4140 C.3     1  UNL1        0.0069
     26 C          63.2742   93.3817   -2.8934 C.3     1  UNL1        0.0069
     27 C          61.8531   89.4426   10.0653 C.3     1  UNL1        0.0216
     28 C          61.6703   89.5935   11.5464 C.3     1  UNL1        0.0217
     29 C          62.8679   89.6561   12.4474 C.3     1  UNL1        0.0792
     30 N          63.5969   88.3976   12.8145 N.am    1  UNL1       -0.2720
     31 C          63.9577   88.1301   14.2457 C.2     1  UNL1        0.4019
     32 O          63.5896   89.1211   15.3098 O.2     1  UNL1       -0.2264
     33 H          63.8385   87.7472   12.1160 H       1  UNL1        0.1527
     34 O          64.6867   86.8716   14.6127 O.3     1  UNL1       -0.4291
     35 C          64.0210   85.8452   15.4806 C.3     1  UNL1        0.2447
     36 C          63.6713   84.4996   14.9173 C.ar    1  UNL1        0.0714
     37 C          64.5248   83.6813   13.9944 C.ar    1  UNL1        0.1053
     38 N          63.7877   82.4121   13.6847 N.ar    1  UNL1       -0.2350
     39 C          62.4786   82.4460   14.4164 C.ar    1  UNL1        0.1343
     40 S          62.4068   83.7362   15.1781 S.2     1  UNL1       -0.0652
     41 C          63.3365   90.9772   12.9814 C.3     1  UNL1        0.0460
     42 C          64.5808   91.6095   12.4319 C.ar    1  UNL1       -0.0205
     43 C          65.7634   91.8385   13.3258 C.ar    1  UNL1       -0.0042
     44 C          67.0076   92.4709   12.7762 C.ar    1  UNL1       -0.0003
     45 C          67.0692   92.8742   11.3328 C.ar    1  UNL1       -0.0000
     46 C          65.8867   92.6452   10.4389 C.ar    1  UNL1       -0.0003
     47 C          64.6425   92.0129   10.9884 C.ar    1  UNL1       -0.0042
     48 C          60.3140   87.4914    9.3076 C.3     1  UNL1        0.0459
     49 C          61.3378   86.4357    9.6033 C.ar    1  UNL1       -0.0205
     50 C          61.4747   85.8926   10.9947 C.ar    1  UNL1       -0.0042
     51 C          62.4985   84.8369   11.2904 C.ar    1  UNL1       -0.0003
     52 C          63.3853   84.3244   10.1946 C.ar    1  UNL1       -0.0000
     53 C          63.2484   84.8675    8.8031 C.ar    1  UNL1       -0.0003
     54 C          62.2246   85.9232    8.5074 C.ar    1  UNL1       -0.0042
@<TRIPOS>BOND
     1    15    16    1
     2     6    16    1
     3     6     7    1
     4     7     8    1
     5     8     2    1
     6     2     3    2
     7     2     4   am
     8     4     1    1
     9     1    27    1
    10    27    28    1
    11    29    28    1
    12    29    41    1
    13    41    42    1
    14    42    43   ar
    15    43    44   ar
    16    44    45   ar
    17    45    46   ar
    18    46    47   ar
    19    29    30    1
    20    30    31   am
    21    31    32    2
    22    31    34    1
    23    34    35    1
    24    35    36    1
    25    36    37   ar
    26    37    38   ar
    27    38    39   ar
    28    39    40   ar
    29     1    48    1
    30    48    49    1
    31    49    50   ar
    32    50    51   ar
    33    51    52   ar
    34    52    53   ar
    35    53    54   ar
    36     8     9    1
    37     9    10   am
    38    10    11    2
    39    10    12   am
    40    12    13    1
    41    12    18    1
    42    18    19    1
    43    19    20   ar
    44    20    21   ar
    45    21    22   ar
    46    22    24    1
    47    24    25    1
    48    24    26    1
    49    22    23   ar
    50     9    14    1
    51    14     6    1
    52    47    42   ar
    53    40    36   ar
    54    54    49   ar
    55    23    19   ar
    56    16    17    1
    57     4     5    1
    58    30    33    1
@<TRIPOS>MOLECULE
*****
 54 58 0 0 0
SMALL
GASTEIGER

@<TRIPOS>ATOM
      1 C          62.4413   86.7951   10.9709 C.3     1  UNL1        0.0760
      2 C          62.3200   89.0098   12.3239 C.2     1  UNL1        0.2406
      3 O          60.8982   89.1998   11.8855 O.2     1  UNL1       -0.2733
      4 N          63.0916   87.8074   11.8666 N.am    1  UNL1       -0.3043
      5 H          64.0248   87.6826   12.1544 H       1  UNL1        0.1494
      6 C          63.6774   91.2379   15.1977 C.3     1  UNL1        0.0763
      7 C          62.8774   90.0639   14.7163 C.3     1  UNL1        0.0467
      8 C          62.9703   90.0220   13.2197 C.3     1  UNL1        0.1544
      9 N          63.8276   91.1702   12.7762 N.am    1  UNL1       -0.2558
     10 C          64.1852   91.5077   11.3591 C.2     1  UNL1        0.3079
     11 O          63.6711   90.6596   10.2336 O.2     1  UNL1       -0.2523
     12 N          65.0567   92.6931   11.0674 N.am    1  UNL1       -0.2566
     13 C          65.4142   93.0306    9.6502 C.3     1  UNL1        0.1168
     14 C          64.2646   91.9217   13.9986 C.3     1  UNL1        0.1111
     15 C          65.0957   92.3945   17.0417 C.3     1  UNL1        0.0859
     16 N          63.8583   91.6550   16.6271 N.3     1  UNL1       -0.2959
     17 H          63.0656   92.2523   16.8622 H       1  UNL1        0.1233
     18 C          65.5707   93.5411   12.1929 C.3     1  UNL1        0.1413
     19 C          66.7308   93.0691   13.0184 C.ar    1  UNL1        0.0858
     20 C          67.6441   91.9273   12.6840 C.ar    1  UNL1        0.0530
     21 S          68.6591   91.8085   13.7821 S.2     1  UNL1       -0.0705
     22 C          68.3729   92.8770   14.7953 C.ar    1  UNL1        0.0875
     23 N          67.1812   93.6561   14.3233 N.ar    1  UNL1       -0.2453
     24 C          69.1432   93.1231   16.0585 C.3     1  UNL1        0.0465
     25 C          69.5518   94.5183   16.4281 C.3     1  UNL1        0.0069
     26 C          69.5050   91.9741   16.9524 C.3     1  UNL1        0.0069
     27 C          61.7863   85.5818   11.5616 C.3     1  UNL1        0.0216
     28 C          62.0655   84.2245   10.9875 C.3     1  UNL1        0.0217
     29 C          63.4045   83.5820   11.1982 C.3     1  UNL1        0.0792
     30 N          64.3384   84.1195   12.2417 N.am    1  UNL1       -0.2720
     31 C          64.1311   83.7697   13.6856 C.2     1  UNL1        0.4019
     32 O          62.9899   82.8823   14.0859 O.2     1  UNL1       -0.2264
     33 H          65.0874   84.7019   11.9790 H       1  UNL1        0.1527
     34 O          65.0650   84.3072   14.7291 O.3     1  UNL1       -0.4291
     35 C          64.9090   85.7155   15.2214 C.3     1  UNL1        0.2447
     36 C          63.7425   86.0813   16.0906 C.ar    1  UNL1        0.0714
     37 C          62.5764   85.1970   16.4192 C.ar    1  UNL1        0.1053
     38 N          61.6505   85.9647   17.3156 N.ar    1  UNL1       -0.2350
     39 C          62.2445   87.3236   17.5409 C.ar    1  UNL1        0.1343
     40 S          63.5374   87.3956   16.7838 S.2     1  UNL1       -0.0652
     41 C          63.8096   82.4020   10.3654 C.3     1  UNL1        0.0460
     42 C          63.3264   81.0284   10.7258 C.ar    1  UNL1       -0.0205
     43 C          62.9786   80.7049   12.1486 C.ar    1  UNL1       -0.0042
     44 C          62.4954   79.3314   12.5089 C.ar    1  UNL1       -0.0003
     45 C          62.3600   78.2813   11.4463 C.ar    1  UNL1       -0.0000
     46 C          62.7078   78.6047   10.0235 C.ar    1  UNL1       -0.0003
     47 C          63.1909   79.9783    9.6633 C.ar    1  UNL1       -0.0042
     48 C          62.4459   86.9961    9.4844 C.3     1  UNL1        0.0459
     49 C          61.1786   87.3694    8.7740 C.ar    1  UNL1       -0.0205
     50 C          60.7989   88.8129    8.6263 C.ar    1  UNL1       -0.0042
     51 C          59.5316   89.1862    7.9159 C.ar    1  UNL1       -0.0003
     52 C          58.6439   88.1158    7.3534 C.ar    1  UNL1       -0.0000
     53 C          59.0236   86.6722    7.5012 C.ar    1  UNL1       -0.0003
     54 C          60.2910   86.2989    8.2115 C.ar    1  UNL1       -0.0042
@<TRIPOS>BOND
     1    15    16    1
     2     6    16    1
     3     6     7    1
     4     7     8    1
     5     8     2    1
     6     2     3    2
     7     2     4   am
     8     4     1    1
     9     1    27    1
    10    27    28    1
    11    29    28    1
    12    29    41    1
    13    41    42    1
    14    42    43   ar
    15    43    44   ar
    16    44    45   ar
    17    45    46   ar
    18    46    47   ar
    19    29    30    1
    20    30    31   am
    21    31    32    2
    22    31    34    1
    23    34    35    1
    24    35    36    1
    25    36    37   ar
    26    37    38   ar
    27    38    39   ar
    28    39    40   ar
    29     1    48    1
    30    48    49    1
    31    49    50   ar
    32    50    51   ar
    33    51    52   ar
    34    52    53   ar
    35    53    54   ar
    36     8     9    1
    37     9    10   am
    38    10    11    2
    39    10    12   am
    40    12    13    1
    41    12    18    1
    42    18    19    1
    43    19    20   ar
    44    20    21   ar
    45    21    22   ar
    46    22    24    1
    47    24    25    1
    48    24    26    1
    49    22    23   ar
    50     9    14    1
    51    14     6    1
    52    47    42   ar
    53    40    36   ar
    54    54    49   ar
    55    23    19   ar
    56    16    17    1
    57     4     5    1
    58    30    33    1
@<TRIPOS>MOLECULE
*****
 54 58 0 0 0
SMALL
GASTEIGER

@<TRIPOS>ATOM
      1 C          62.2940   86.7697   11.4455 C.3     1  UNL1        0.0760
      2 C          62.3039   89.0870   12.6204 C.2     1  UNL1        0.2406
      3 O          60.8911   89.3196   12.1735 O.2     1  UNL1       -0.2733
      4 N          63.0054   87.8120   12.2564 N.am    1  UNL1       -0.3043
      5 H          63.9327   87.6592   12.5498 H       1  UNL1        0.1494
      6 C          63.8447   91.4243   15.3090 C.3     1  UNL1        0.0763
      7 C          63.0041   90.2421   14.9271 C.3     1  UNL1        0.0467
      8 C          63.0153   90.1292   13.4313 C.3     1  UNL1        0.1544
      9 N          63.8629   91.2416   12.8889 N.am    1  UNL1       -0.2558
     10 C          64.1479   91.5070   11.4403 C.2     1  UNL1        0.3079
     11 O          63.5623   90.6159   10.3853 O.2     1  UNL1       -0.2523
     12 N          65.0183   92.6634   11.0468 N.am    1  UNL1       -0.2566
     13 C          65.3033   92.9289    9.5982 C.3     1  UNL1        0.1168
     14 C          64.3755   92.0420   14.0494 C.3     1  UNL1        0.1111
     15 C          65.3807   92.6336   17.0202 C.3     1  UNL1        0.0859
     16 N          64.1083   91.9044   16.7054 N.3     1  UNL1       -0.2959
     17 H          63.3415   92.5306   16.9511 H       1  UNL1        0.1233
     18 C          65.6039   93.5545   12.1019 C.3     1  UNL1        0.1413
     19 C          66.7402   93.0658   12.9504 C.ar    1  UNL1        0.0858
     20 C          67.6094   91.8782   12.6609 C.ar    1  UNL1        0.0530
     21 S          68.6133   91.7572   13.7689 S.2     1  UNL1       -0.0705
     22 C          68.3644   92.8702   14.7433 C.ar    1  UNL1        0.0875
     23 N          67.2068   93.6789   14.2375 N.ar    1  UNL1       -0.2453
     24 C          69.1374   93.1289   16.0024 C.3     1  UNL1        0.0465
     25 C          69.5615   91.9821   16.8711 C.3     1  UNL1        0.0069
     26 C          69.4863   94.5346   16.3929 C.3     1  UNL1        0.0069
     27 C          62.3423   85.3305   11.8656 C.3     1  UNL1        0.0216
     28 C          63.6453   84.5876   11.8484 C.3     1  UNL1        0.0217
     29 C          64.2495   84.1033   13.1331 C.3     1  UNL1        0.0792
     30 N          64.2097   82.6438   13.4772 N.am    1  UNL1       -0.2720
     31 C          62.9496   82.0346   14.0168 C.2     1  UNL1        0.4019
     32 O          61.7294   82.8847   14.2122 O.2     1  UNL1       -0.2264
     33 H          65.0106   82.0858   13.3490 H       1  UNL1        0.1527
     34 O          62.9099   80.5751   14.3609 O.3     1  UNL1       -0.4291
     35 C          62.3051   79.5943   13.4006 C.3     1  UNL1        0.2447
     36 C          62.5904   79.7088   11.9325 C.ar    1  UNL1        0.0714
     37 C          62.9103   80.9738   11.1925 C.ar    1  UNL1        0.1053
     38 N          63.1235   80.6253    9.7492 N.ar    1  UNL1       -0.2350
     39 C          62.9353   79.1449    9.5971 C.ar    1  UNL1        0.1343
     40 S          62.6058   78.5785   10.9465 S.2     1  UNL1       -0.0652
     41 C          64.8934   85.0783   14.0736 C.3     1  UNL1        0.0460
     42 C          64.0888   85.6996   15.1766 C.ar    1  UNL1       -0.0205
     43 C          64.1978   87.1709   15.4474 C.ar    1  UNL1       -0.0042
     44 C          63.3932   87.7921   16.5504 C.ar    1  UNL1       -0.0003
     45 C          62.4795   86.9420   17.3826 C.ar    1  UNL1       -0.0000
     46 C          62.3705   85.4707   17.1118 C.ar    1  UNL1       -0.0003
     47 C          63.1751   84.8495   16.0088 C.ar    1  UNL1       -0.0042
     48 C          61.5342   87.1666   10.2146 C.3     1  UNL1        0.0459
     49 C          61.6093   86.3174    8.9804 C.ar    1  UNL1       -0.0205
     50 C          60.3800   86.0870    8.1525 C.ar    1  UNL1       -0.0042
     51 C          60.4551   85.2378    6.9183 C.ar    1  UNL1       -0.0003
     52 C          61.7597   84.6189    6.5121 C.ar    1  UNL1       -0.0000
     53 C          62.9892   84.8492    7.3400 C.ar    1  UNL1       -0.0003
     54 C          62.9140   85.6985    8.5742 C.ar    1  UNL1       -0.0042
@<TRIPOS>BOND
     1    15    16    1
     2     6    16    1
     3     6     7    1
     4     7     8    1
     5     8     2    1
     6     2     3    2
     7     2     4   am
     8     4     1    1
     9     1    27    1
    10    27    28    1
    11    29    28    1
    12    29    41    1
    13    41    42    1
    14    42    43   ar
    15    43    44   ar
    16    44    45   ar
    17    45    46   ar
    18    46    47   ar
    19    29    30    1
    20    30    31   am
    21    31    32    2
    22    31    34    1
    23    34    35    1
    24    35    36    1
    25    36    37   ar
    26    37    38   ar
    27    38    39   ar
    28    39    40   ar
    29     1    48    1
    30    48    49    1
    31    49    50   ar
    32    50    51   ar
    33    51    52   ar
    34    52    53   ar
    35    53    54   ar
    36     8     9    1
    37     9    10   am
    38    10    11    2
    39    10    12   am
    40    12    13    1
    41    12    18    1
    42    18    19    1
    43    19    20   ar
    44    20    21   ar
    45    21    22   ar
    46    22    24    1
    47    24    25    1
    48    24    26    1
    49    22    23   ar
    50     9    14    1
    51    14     6    1
    52    47    42   ar
    53    40    36   ar
    54    54    49   ar
    55    23    19   ar
    56    16    17    1
    57     4     5    1
    58    30    33    1
@<TRIPOS>MOLECULE
*****
 54 58 0 0 0
SMALL
GASTEIGER

@<TRIPOS>ATOM
      1 C          62.2089   86.9168   11.0229 C.3     1  UNL1        0.0760
      2 C          62.2002   89.1239   12.3936 C.2     1  UNL1        0.2406
      3 O          60.7691   89.3569   12.0095 O.2     1  UNL1       -0.2733
      4 N          62.9202   87.9039   11.9003 N.am    1  UNL1       -0.3043
      5 H          63.8595   87.7510   12.1524 H       1  UNL1        0.1494
      6 C          63.7198   91.2962   15.2287 C.3     1  UNL1        0.0763
      7 C          62.8663   90.1511   14.7698 C.3     1  UNL1        0.0467
      8 C          62.9115   90.1110   13.2709 C.3     1  UNL1        0.1544
      9 N          63.7928   91.2312   12.8036 N.am    1  UNL1       -0.2558
     10 C          64.1175   91.5611   11.3768 C.2     1  UNL1        0.3079
     11 O          63.5408   90.7343   10.2660 O.2     1  UNL1       -0.2523
     12 N          65.0189   92.7176   11.0608 N.am    1  UNL1       -0.2566
     13 C          65.3437   93.0474    9.6340 C.3     1  UNL1        0.1168
     14 C          64.2923   91.9638   14.0135 C.3     1  UNL1        0.1111
     15 C          65.2176   92.4282   17.0245 C.3     1  UNL1        0.0859
     16 N          63.9586   91.7024   16.6527 N.3     1  UNL1       -0.2959
     17 H          63.1809   92.3053   16.9214 H       1  UNL1        0.1233
     18 C          65.5956   93.5443   12.1717 C.3     1  UNL1        0.1413
     19 C          66.7597   93.0280   12.9644 C.ar    1  UNL1        0.0858
     20 C          67.6729   91.9082   12.5623 C.ar    1  UNL1        0.0530
     21 S          68.6925   91.7289   13.6478 S.2     1  UNL1       -0.0705
     22 C          68.4094   92.7381   14.7209 C.ar    1  UNL1        0.0875
     23 N          67.2148   93.5410   14.2986 N.ar    1  UNL1       -0.2453
     24 C          69.1846   92.9135   15.9929 C.3     1  UNL1        0.0465
     25 C          69.8991   94.2043   16.2638 C.3     1  UNL1        0.0069
     26 C          69.2456   91.7982   16.9941 C.3     1  UNL1        0.0069
     27 C          61.9958   85.5096   11.4965 C.3     1  UNL1        0.0216
     28 C          63.1121   84.5116   11.4085 C.3     1  UNL1        0.0217
     29 C          63.5868   83.8062   12.6443 C.3     1  UNL1        0.0792
     30 N          63.1253   82.4087   12.9342 N.am    1  UNL1       -0.2720
     31 C          63.1653   81.3668   11.8558 C.2     1  UNL1        0.4019
     32 O          63.6668   81.7224   10.4876 O.2     1  UNL1       -0.2264
     33 H          62.7962   82.1753   13.8322 H       1  UNL1        0.1527
     34 O          62.7039   79.9693   12.1457 O.3     1  UNL1       -0.4291
     35 C          62.2721   79.5945   13.5324 C.3     1  UNL1        0.2447
     36 C          60.8410   79.7707   13.9457 C.ar    1  UNL1        0.0714
     37 C          60.1181   81.0776   14.0854 C.ar    1  UNL1        0.1053
     38 N          58.7118   80.7856   14.5178 N.ar    1  UNL1       -0.2350
     39 C          58.5655   79.2982   14.6455 C.ar    1  UNL1        0.1343
     40 S          59.8814   78.6710   14.2918 S.2     1  UNL1       -0.0652
     41 C          64.5229   84.4983   13.5902 C.3     1  UNL1        0.0460
     42 C          63.9765   85.2857   14.7441 C.ar    1  UNL1       -0.0205
     43 C          64.3930   86.7130   14.9424 C.ar    1  UNL1       -0.0042
     44 C          63.8467   87.5003   16.0963 C.ar    1  UNL1       -0.0003
     45 C          62.8837   86.8604   17.0519 C.ar    1  UNL1       -0.0000
     46 C          62.4672   85.4331   16.8537 C.ar    1  UNL1       -0.0003
     47 C          63.0136   84.6458   15.6998 C.ar    1  UNL1       -0.0042
     48 C          61.7107   87.3370    9.6718 C.3     1  UNL1        0.0459
     49 C          61.6709   86.3468    8.5459 C.ar    1  UNL1       -0.0205
     50 C          60.3789   86.0700    7.8358 C.ar    1  UNL1       -0.0042
     51 C          60.3392   85.0797    6.7098 C.ar    1  UNL1       -0.0003
     52 C          61.5913   84.3663    6.2939 C.ar    1  UNL1       -0.0000
     53 C          62.8833   84.6430    7.0040 C.ar    1  UNL1       -0.0003
     54 C          62.9231   85.6333    8.1300 C.ar    1  UNL1       -0.0042
@<TRIPOS>BOND
     1    15    16    1
     2     6    16    1
     3     6     7    1
     4     7     8    1
     5     8     2    1
     6     2     3    2
     7     2     4   am
     8     4     1    1
     9     1    27    1
    10    27    28    1
    11    29    28    1
    12    29    41    1
    13    41    42    1
    14    42    43   ar
    15    43    44   ar
    16    44    45   ar
    17    45    46   ar
    18    46    47   ar
    19    29    30    1
    20    30    31   am
    21    31    32    2
    22    31    34    1
    23    34    35    1
    24    35    36    1
    25    36    37   ar
    26    37    38   ar
    27    38    39   ar
    28    39    40   ar
    29     1    48    1
    30    48    49    1
    31    49    50   ar
    32    50    51   ar
    33    51    52   ar
    34    52    53   ar
    35    53    54   ar
    36     8     9    1
    37     9    10   am
    38    10    11    2
    39    10    12   am
    40    12    13    1
    41    12    18    1
    42    18    19    1
    43    19    20   ar
    44    20    21   ar
    45    21    22   ar
    46    22    24    1
    47    24    25    1
    48    24    26    1
    49    22    23   ar
    50     9    14    1
    51    14     6    1
    52    47    42   ar
    53    40    36   ar
    54    54    49   ar
    55    23    19   ar
    56    16    17    1
    57     4     5    1
    58    30    33    1
@<TRIPOS>MOLECULE
*****
 54 58 0 0 0
SMALL
GASTEIGER

@<TRIPOS>ATOM
      1 C          62.7873   89.4340   11.5960 C.3     1  UNL1        0.0760
      2 C          62.3107   86.8837   11.7350 C.2     1  UNL1        0.2406
      3 O          60.8468   87.1663   11.9000 O.2     1  UNL1       -0.2733
      4 N          63.2809   88.0176   11.5830 N.am    1  UNL1       -0.3043
      5 H          64.2417   87.8321   11.4748 H       1  UNL1        0.1494
      6 C          63.5193   83.2790   10.9534 C.3     1  UNL1        0.0763
      7 C          63.0222   84.6207   10.5030 C.3     1  UNL1        0.0467
      8 C          62.8043   85.4674   11.7220 C.3     1  UNL1        0.1544
      9 N          63.1668   84.6489   12.9257 N.am    1  UNL1       -0.2558
     10 C          63.0992   85.1031   14.3537 C.2     1  UNL1        0.3079
     11 O          62.6349   86.4922   14.6776 O.2     1  UNL1       -0.2523
     12 N          63.4959   84.1684   15.4576 N.am    1  UNL1       -0.2566
     13 C          63.4283   84.6226   16.8856 C.3     1  UNL1        0.1168
     14 C          63.6087   83.2964   12.4507 C.3     1  UNL1        0.1111
     15 C          63.1423   80.8177   10.2122 C.3     1  UNL1        0.0859
     16 N          63.8662   82.1230   10.0628 N.3     1  UNL1       -0.2959
     17 H          63.7159   82.4349    9.1034 H       1  UNL1        0.1233
     18 C          63.9602   82.7793   15.1336 C.3     1  UNL1        0.1413
     19 C          62.9785   81.7547   14.6472 C.ar    1  UNL1        0.0858
     20 C          63.3054   80.5349   13.8378 C.ar    1  UNL1        0.0530
     21 S          62.0265   79.7963   13.5752 S.2     1  UNL1       -0.0705
     22 C          60.9091   80.5598   14.2223 C.ar    1  UNL1        0.0875
     23 N          61.4975   81.7701   14.8849 N.ar    1  UNL1       -0.2453
     24 C          59.4583   80.1796   14.2092 C.3     1  UNL1        0.0465
     25 C          58.4183   81.2015   13.8570 C.3     1  UNL1        0.0069
     26 C          59.0472   78.7774   14.5483 C.3     1  UNL1        0.0069
     27 C          62.1636   90.0222   10.3652 C.3     1  UNL1        0.0216
     28 C          60.7118   89.7839   10.0731 C.3     1  UNL1        0.0217
     29 C          60.3099   88.9953    8.8620 C.3     1  UNL1        0.0792
     30 N          60.2237   89.6677    7.5239 N.am    1  UNL1       -0.2720
     31 C          59.0302   89.4379    6.6446 C.2     1  UNL1        0.4019
     32 O          57.9232   88.5358    7.1035 O.2     1  UNL1       -0.2264
     33 H          60.9503   90.2598    7.2227 H       1  UNL1        0.1527
     34 O          58.9439   90.1103    5.3066 O.3     1  UNL1       -0.4291
     35 C          59.2733   91.5679    5.1770 C.3     1  UNL1        0.2447
     36 C          60.2224   92.0306    4.1115 C.ar    1  UNL1        0.0714
     37 C          61.6639   91.6365    3.9832 C.ar    1  UNL1        0.1053
     38 N          62.2290   92.3309    2.7797 N.ar    1  UNL1       -0.2350
     39 C          61.1366   93.1542    2.1642 C.ar    1  UNL1        0.1343
     40 S          59.8965   92.9686    2.9873 S.2     1  UNL1       -0.0652
     41 C          59.9944   87.5344    8.9890 C.3     1  UNL1        0.0460
     42 C          60.7829   86.5261    8.2068 C.ar    1  UNL1       -0.0205
     43 C          60.0911   85.6394    7.2142 C.ar    1  UNL1       -0.0042
     44 C          60.8795   84.6311    6.4321 C.ar    1  UNL1       -0.0003
     45 C          62.3597   84.5095    6.6426 C.ar    1  UNL1       -0.0000
     46 C          63.0514   85.3962    7.6351 C.ar    1  UNL1       -0.0003
     47 C          62.2630   86.4044    8.4173 C.ar    1  UNL1       -0.0042
     48 C          62.9173   90.2622   12.8400 C.3     1  UNL1        0.0459
     49 C          64.2112   90.9563   13.1469 C.ar    1  UNL1       -0.0205
     50 C          64.9332   90.6643   14.4289 C.ar    1  UNL1       -0.0042
     51 C          66.2270   91.3584   14.7358 C.ar    1  UNL1       -0.0003
     52 C          66.7988   92.3445   13.7609 C.ar    1  UNL1       -0.0000
     53 C          66.0768   92.6366   12.4789 C.ar    1  UNL1       -0.0003
     54 C          64.7829   91.9425   12.1719 C.ar    1  UNL1       -0.0042
@<TRIPOS>BOND
     1    15    16    1
     2     6    16    1
     3     6     7    1
     4     7     8    1
     5     8     2    1
     6     2     3    2
     7     2     4   am
     8     4     1    1
     9     1    27    1
    10    27    28    1
    11    29    28    1
    12    29    41    1
    13    41    42    1
    14    42    43   ar
    15    43    44   ar
    16    44    45   ar
    17    45    46   ar
    18    46    47   ar
    19    29    30    1
    20    30    31   am
    21    31    32    2
    22    31    34    1
    23    34    35    1
    24    35    36    1
    25    36    37   ar
    26    37    38   ar
    27    38    39   ar
    28    39    40   ar
    29     1    48    1
    30    48    49    1
    31    49    50   ar
    32    50    51   ar
    33    51    52   ar
    34    52    53   ar
    35    53    54   ar
    36     8     9    1
    37     9    10   am
    38    10    11    2
    39    10    12   am
    40    12    13    1
    41    12    18    1
    42    18    19    1
    43    19    20   ar
    44    20    21   ar
    45    21    22   ar
    46    22    24    1
    47    24    25    1
    48    24    26    1
    49    22    23   ar
    50     9    14    1
    51    14     6    1
    52    47    42   ar
    53    40    36   ar
    54    54    49   ar
    55    23    19   ar
    56    16    17    1
    57     4     5    1
    58    30    33    1
@<TRIPOS>MOLECULE
*****
 54 58 0 0 0
SMALL
GASTEIGER

@<TRIPOS>ATOM
      1 C          61.9417   87.3352   11.4556 C.3     1  UNL1        0.0760
      2 C          63.0511   89.6478   11.0416 C.2     1  UNL1        0.2406
      3 O          62.7269   89.5418    9.5809 O.2     1  UNL1       -0.2733
      4 N          62.6585   88.5444   11.9790 N.am    1  UNL1       -0.3043
      5 H          62.8712   88.6140   12.9377 H       1  UNL1        0.1494
      6 C          65.0059   92.9421   11.6676 C.3     1  UNL1        0.0763
      7 C          64.4077   91.9306   10.7353 C.3     1  UNL1        0.0467
      8 C          63.7679   90.8570   11.5650 C.3     1  UNL1        0.1544
      9 N          63.9707   91.2051   13.0099 N.am    1  UNL1       -0.2558
     10 C          63.4924   90.4051   14.1851 C.2     1  UNL1        0.3079
     11 O          62.7351   89.1290   13.9653 O.2     1  UNL1       -0.2523
     12 N          63.7713   90.8810   15.5799 N.am    1  UNL1       -0.2566
     13 C          63.2929   90.0809   16.7551 C.3     1  UNL1        0.1168
     14 C          64.7359   92.4937   13.0733 C.3     1  UNL1        0.1111
     15 C          66.4663   94.2342    9.9508 C.3     1  UNL1        0.0859
     16 N          65.7445   94.1839   11.2647 N.3     1  UNL1       -0.2959
     17 H          65.0624   94.9422   11.2551 H       1  UNL1        0.1233
     18 C          64.5286   92.1571   15.7996 C.3     1  UNL1        0.1413
     19 C          66.0220   92.1764   15.6604 C.ar    1  UNL1        0.0858
     20 C          66.8415   91.2410   14.8219 C.ar    1  UNL1        0.0530
     21 S          68.2841   91.6210   14.9785 S.2     1  UNL1       -0.0705
     22 C          68.3561   92.7914   15.9141 C.ar    1  UNL1        0.0875
     23 N          66.9581   93.1347   16.3355 N.ar    1  UNL1       -0.2453
     24 C          69.6066   93.4949   16.3513 C.3     1  UNL1        0.0465
     25 C          69.8096   94.9424   16.0144 C.3     1  UNL1        0.0069
     26 C          70.6541   92.7511   17.1255 C.3     1  UNL1        0.0069
     27 C          60.4567   87.3748   11.2483 C.3     1  UNL1        0.0216
     28 C          59.8539   88.4019   10.3363 C.3     1  UNL1        0.0217
     29 C          59.8166   88.1610    8.8561 C.3     1  UNL1        0.0792
     30 N          60.0773   89.2917    7.9055 N.am    1  UNL1       -0.2720
     31 C          59.0918   89.5986    6.8170 C.2     1  UNL1        0.4019
     32 O          57.8459   88.7749    6.6791 O.2     1  UNL1       -0.2264
     33 H          60.8950   89.8323    7.9960 H       1  UNL1        0.1527
     34 O          59.3525   90.7292    5.8663 O.3     1  UNL1       -0.4291
     35 C          60.6491   90.7937    5.1150 C.3     1  UNL1        0.2447
     36 C          60.8177   91.7743    3.9926 C.ar    1  UNL1        0.0714
     37 C          62.0708   92.0000    3.1997 C.ar    1  UNL1        0.1053
     38 N          61.7903   93.0667    2.1830 N.ar    1  UNL1       -0.2350
     39 C          60.3638   93.5003    2.3476 C.ar    1  UNL1        0.1343
     40 S          59.7627   92.7015    3.4660 S.2     1  UNL1       -0.0652
     41 C          59.5187   86.7896    8.3267 C.3     1  UNL1        0.0460
     42 C          60.6173   85.9613    7.7291 C.ar    1  UNL1       -0.0205
     43 C          60.3427   85.1052    6.5284 C.ar    1  UNL1       -0.0042
     44 C          61.4413   84.2770    5.9308 C.ar    1  UNL1       -0.0003
     45 C          62.8144   84.3049    6.5339 C.ar    1  UNL1       -0.0000
     46 C          63.0890   85.1610    7.7345 C.ar    1  UNL1       -0.0003
     47 C          61.9904   85.9892    8.3321 C.ar    1  UNL1       -0.0042
     48 C          62.7100   86.0862   11.1396 C.3     1  UNL1        0.0459
     49 C          62.9432   85.0587   12.2072 C.ar    1  UNL1       -0.0205
     50 C          62.5789   83.6248   11.9605 C.ar    1  UNL1       -0.0042
     51 C          62.8120   82.5973   13.0281 C.ar    1  UNL1       -0.0003
     52 C          63.4095   83.0037   14.3425 C.ar    1  UNL1       -0.0000
     53 C          63.7738   84.4378   14.5894 C.ar    1  UNL1       -0.0003
     54 C          63.5407   85.4653   13.5217 C.ar    1  UNL1       -0.0042
@<TRIPOS>BOND
     1    15    16    1
     2     6    16    1
     3     6     7    1
     4     7     8    1
     5     8     2    1
     6     2     3    2
     7     2     4   am
     8     4     1    1
     9     1    27    1
    10    27    28    1
    11    29    28    1
    12    29    41    1
    13    41    42    1
    14    42    43   ar
    15    43    44   ar
    16    44    45   ar
    17    45    46   ar
    18    46    47   ar
    19    29    30    1
    20    30    31   am
    21    31    32    2
    22    31    34    1
    23    34    35    1
    24    35    36    1
    25    36    37   ar
    26    37    38   ar
    27    38    39   ar
    28    39    40   ar
    29     1    48    1
    30    48    49    1
    31    49    50   ar
    32    50    51   ar
    33    51    52   ar
    34    52    53   ar
    35    53    54   ar
    36     8     9    1
    37     9    10   am
    38    10    11    2
    39    10    12   am
    40    12    13    1
    41    12    18    1
    42    18    19    1
    43    19    20   ar
    44    20    21   ar
    45    21    22   ar
    46    22    24    1
    47    24    25    1
    48    24    26    1
    49    22    23   ar
    50     9    14    1
    51    14     6    1
    52    47    42   ar
    53    40    36   ar
    54    54    49   ar
    55    23    19   ar
    56    16    17    1
    57     4     5    1
    58    30    33    1
@<TRIPOS>MOLECULE
*****
 54 58 0 0 0
SMALL
GASTEIGER

@<TRIPOS>ATOM
      1 C          62.1504   90.1420   10.0102 C.3     1  UNL1        0.0760
      2 C          61.9698   87.9168   11.3391 C.2     1  UNL1        0.2406
      3 O          60.9901   88.5567   12.2774 O.2     1  UNL1       -0.2733
      4 N          62.5500   88.7095   10.2054 N.am    1  UNL1       -0.3043
      5 H          63.1931   88.2895    9.5895 H       1  UNL1        0.1494
      6 C          62.5524   84.0802   11.2550 C.3     1  UNL1        0.0763
      7 C          61.9053   85.3193   10.7110 C.3     1  UNL1        0.0467
      8 C          62.3694   86.4842   11.5343 C.3     1  UNL1        0.1544
      9 N          63.3033   85.9650   12.5870 N.am    1  UNL1       -0.2558
     10 C          64.0016   86.7871   13.6293 C.2     1  UNL1        0.3079
     11 O          63.7903   88.2714   13.6794 O.2     1  UNL1       -0.2523
     12 N          64.9111   86.1252   14.6216 N.am    1  UNL1       -0.2566
     13 C          65.6093   86.9473   15.6639 C.3     1  UNL1        0.1168
     14 C          63.4164   84.4792   12.4144 C.3     1  UNL1        0.1111
     15 C          63.5643   81.8513   10.3845 C.3     1  UNL1        0.0859
     16 N          62.3678   82.6867   10.7314 N.3     1  UNL1       -0.2959
     17 H          61.8452   82.1725   11.4406 H       1  UNL1        0.1233
     18 C          65.1223   84.6409   14.5714 C.3     1  UNL1        0.1413
     19 C          63.9495   83.7123   14.6819 C.ar    1  UNL1        0.0858
     20 C          62.7538   83.9035   15.5671 C.ar    1  UNL1        0.0530
     21 S          61.8318   82.7388   15.3589 S.2     1  UNL1       -0.0705
     22 C          62.4577   81.8277   14.3449 C.ar    1  UNL1        0.0875
     23 N          63.7665   82.4293   13.9265 N.ar    1  UNL1       -0.2453
     24 C          61.8768   80.5409   13.8383 C.3     1  UNL1        0.0465
     25 C          60.4513   80.1894   14.1453 C.3     1  UNL1        0.0069
     26 C          62.7214   79.6056   13.0248 C.3     1  UNL1        0.0069
     27 C          60.6986   90.5137    9.9465 C.3     1  UNL1        0.0216
     28 C          59.6828   89.4983    9.5139 C.3     1  UNL1        0.0217
     29 C          59.7772   88.8760    8.1523 C.3     1  UNL1        0.0792
     30 N          60.2170   89.7012    6.9794 N.am    1  UNL1       -0.2720
     31 C          59.1994   90.2416    6.0189 C.2     1  UNL1        0.4019
     32 O          57.7421   89.9567    6.2312 O.2     1  UNL1       -0.2264
     33 H          61.1734   89.8882    6.8401 H       1  UNL1        0.1527
     34 O          59.6392   91.0668    4.8460 O.3     1  UNL1       -0.4291
     35 C          61.1009   91.2502    4.5640 C.3     1  UNL1        0.2447
     36 C          61.5405   92.0382    3.3657 C.ar    1  UNL1        0.0714
     37 C          60.7014   93.0151    2.5966 C.ar    1  UNL1        0.1053
     38 N          61.5386   93.5683    1.4816 N.ar    1  UNL1       -0.2350
     39 C          62.8952   92.9332    1.5617 C.ar    1  UNL1        0.1343
     40 S          62.8963   91.9876    2.7261 S.2     1  UNL1       -0.0652
     41 C          59.4317   87.4286    7.9636 C.3     1  UNL1        0.0460
     42 C          60.5030   86.4428    7.6023 C.ar    1  UNL1       -0.0205
     43 C          61.8770   86.5798    8.1884 C.ar    1  UNL1       -0.0042
     44 C          62.9482   85.5940    7.8271 C.ar    1  UNL1       -0.0003
     45 C          62.6455   84.4711    6.8797 C.ar    1  UNL1       -0.0000
     46 C          61.2716   84.3340    6.2937 C.ar    1  UNL1       -0.0003
     47 C          60.2003   85.3199    6.6550 C.ar    1  UNL1       -0.0042
     48 C          63.2027   91.2029    9.8786 C.3     1  UNL1        0.0459
     49 C          64.0662   91.5526   11.0542 C.ar    1  UNL1       -0.0205
     50 C          63.6652   91.1217   12.4339 C.ar    1  UNL1       -0.0042
     51 C          64.5287   91.4714   13.6095 C.ar    1  UNL1       -0.0003
     52 C          65.7932   92.2520   13.4055 C.ar    1  UNL1       -0.0000
     53 C          66.1943   92.6830   12.0258 C.ar    1  UNL1       -0.0003
     54 C          65.3308   92.3333   10.8502 C.ar    1  UNL1       -0.0042
@<TRIPOS>BOND
     1    15    16    1
     2     6    16    1
     3     6     7    1
     4     7     8    1
     5     8     2    1
     6     2     3    2
     7     2     4   am
     8     4     1    1
     9     1    27    1
    10    27    28    1
    11    29    28    1
    12    29    41    1
    13    41    42    1
    14    42    43   ar
    15    43    44   ar
    16    44    45   ar
    17    45    46   ar
    18    46    47   ar
    19    29    30    1
    20    30    31   am
    21    31    32    2
    22    31    34    1
    23    34    35    1
    24    35    36    1
    25    36    37   ar
    26    37    38   ar
    27    38    39   ar
    28    39    40   ar
    29     1    48    1
    30    48    49    1
    31    49    50   ar
    32    50    51   ar
    33    51    52   ar
    34    52    53   ar
    35    53    54   ar
    36     8     9    1
    37     9    10   am
    38    10    11    2
    39    10    12   am
    40    12    13    1
    41    12    18    1
    42    18    19    1
    43    19    20   ar
    44    20    21   ar
    45    21    22   ar
    46    22    24    1
    47    24    25    1
    48    24    26    1
    49    22    23   ar
    50     9    14    1
    51    14     6    1
    52    47    42   ar
    53    40    36   ar
    54    54    49   ar
    55    23    19   ar
    56    16    17    1
    57     4     5    1
    58    30    33    1
