@<TRIPOS>MOLECULE
*****
 43 49 0 0 0
SMALL
GASTEIGER

@<TRIPOS>ATOM
      1 C          63.0593   86.1883   12.5025 C.3     1  UNL1        0.1560
      2 C          63.6118   87.1011   13.5567 C.2     1  UNL1        0.2440
      3 O          64.1055   86.5352   14.8551 O.2     1  UNL1       -0.2731
      4 N          63.6707   88.5799   13.3124 N.am    1  UNL1       -0.2734
      5 C          64.1590   89.7183   14.1584 C.3     1  UNL1        0.0937
      6 C          63.9671   90.9879   13.3827 C.3     1  UNL1        0.0234
      7 C          63.3602   90.6340   12.0574 C.3     1  UNL1        0.0285
      8 C          63.1770   89.1458   12.0139 C.3     1  UNL1        0.1465
      9 C          62.6245   88.2329   10.9597 C.3     1  UNL1        0.2754
     10 O          62.6199   89.6827   10.5748 O.3     1  UNL1       -0.3478
     11 O          62.0682   88.4994    9.5924 O.3     1  UNL1       -0.2976
     12 C          61.6656   87.1853    8.9916 C.3     1  UNL1        0.2253
     13 C          61.9730   86.1067    9.9876 C.2     1  UNL1        0.2719
     14 O          61.7303   84.6384    9.8002 O.2     1  UNL1       -0.2704
     15 N          62.5656   86.7541   11.2040 N.am    1  UNL1       -0.2271
     16 H          62.9889   90.2109   11.2998 H       1  UNL1        0.2145
     17 N          61.2561   88.0259    7.8188 N.am    1  UNL1       -0.2787
     18 C          60.1105   88.9856    7.9474 C.2     1  UNL1        0.2293
     19 O          59.3743   89.1046    9.2488 O.2     1  UNL1       -0.2746
     20 H          61.7393   87.9478    6.9645 H       1  UNL1        0.1519
     21 C          59.7010   89.8262    6.7745 C.3     1  UNL1        0.1141
     22 C          60.7350   90.3119    5.8024 C.2     1  UNL1       -0.0192
     23 C          60.3255   91.1525    4.6295 C.2     1  UNL1       -0.0145
     24 C          61.3596   91.6382    3.6574 C.2     1  UNL1       -0.0161
     25 C          62.8030   91.2833    3.8582 C.2     1  UNL1       -0.0038
     26 C          63.8370   91.7689    2.8862 C.2     1  UNL1        0.0009
     27 C          63.4275   92.6096    1.7133 C.2     1  UNL1        0.0153
     28 C          61.9841   92.9645    1.5125 C.2     1  UNL1        0.0665
     29 N          61.1526   93.7407    0.5346 N.2     1  UNL1       -0.2482
     30 C          59.7223   93.6652    0.9799 C.2     1  UNL1        0.0907
     31 C          59.5065   92.8338    2.2837 C.2     1  UNL1       -0.0142
     32 C          60.9501   92.4789    2.4845 C.3     1  UNL1        0.0819
     33 C          58.4726   92.3481    3.2558 C.3     1  UNL1        0.0447
     34 C          58.8820   91.5075    4.4287 C.3     1  UNL1        0.0837
     35 N          57.8481   91.0218    5.4008 N.3     1  UNL1       -0.2681
     36 C          56.4045   91.3768    5.2000 C.3     1  UNL1        0.0899
     37 C          58.2575   90.1812    6.5736 C.3     1  UNL1        0.0859
     38 C          62.0285   84.1521   13.7442 C.3     1  UNL1        0.0022
     39 C          63.0004   84.7095   12.7467 C.3     1  UNL1        0.0273
     40 C          63.9134   83.7880   11.9936 C.3     1  UNL1        0.0022
     41 C          61.1773   86.0469    8.1457 C.3     1  UNL1        0.0516
     42 C          59.7081   85.8724    7.8987 C.3     1  UNL1        0.0047
     43 C          62.1582   85.0831    7.5467 C.3     1  UNL1        0.0047
@<TRIPOS>BOND
     1    38    39    1
     2    39    40    1
     3     1    39    1
     4     1     2    1
     5     2     3    2
     6     2     4   am
     7     4     5    1
     8     5     6    1
     9     6     7    1
    10     8     7    1
    11     8     9    1
    12     9    10    1
    13     9    11    1
    14    11    12    1
    15    12    17    1
    16    17    18   am
    17    18    19    2
    18    21    18    1
    19    21    22    1
    20    22    23    2
    21    23    24    1
    22    24    25    2
    23    25    26    1
    24    26    27    2
    25    27    28    1
    26    28    29    2
    27    29    30    1
    28    30    31    2
    29    31    32    1
    30    31    33    1
    31    34    33    1
    32    34    35    1
    33    35    36    1
    34    35    37    1
    35    12    41    1
    36    41    42    1
    37    41    43    1
    38    12    13    1
    39    13    14    2
    40    13    15   am
    41    15     1    1
    42     8     4    1
    43    15     9    1
    44    37    21    1
    45    34    23    1
    46    32    24    1
    47    32    28    1
    48    10    16    1
    49    17    20    1
@<TRIPOS>MOLECULE
*****
 43 49 0 0 0
SMALL
GASTEIGER

@<TRIPOS>ATOM
      1 C          63.1580   86.0577   12.4875 C.3     1  UNL1        0.1560
      2 C          63.5522   84.6761   12.0563 C.2     1  UNL1        0.2440
      3 O          64.0574   83.6903   13.0676 O.2     1  UNL1       -0.2731
      4 N          63.4411   84.2805   10.6137 N.am    1  UNL1       -0.2734
      5 C          63.7527   83.0000    9.8972 C.3     1  UNL1        0.0937
      6 C          63.4400   83.1945    8.4431 C.3     1  UNL1        0.0234
      7 C          62.9352   84.5952    8.2609 C.3     1  UNL1        0.0285
      8 C          62.9359   85.2664    9.6024 C.3     1  UNL1        0.1465
      9 C          62.5417   86.6480   10.0337 C.3     1  UNL1        0.2754
     10 O          62.3769   86.3974    8.5639 O.3     1  UNL1       -0.3478
     11 O          62.0135   87.8256    9.2694 O.3     1  UNL1       -0.2976
     12 C          61.7982   88.9490   10.2396 C.3     1  UNL1        0.2253
     13 C          62.1932   88.4658   11.6035 C.2     1  UNL1        0.2719
     14 O          62.1384   89.2644   12.8721 O.2     1  UNL1       -0.2704
     15 N          62.6527   87.0436   11.4763 N.am    1  UNL1       -0.2271
     16 H          62.6492   85.4894    8.3583 H       1  UNL1        0.2145
     17 N          61.3380   89.7001    9.0255 N.am    1  UNL1       -0.2787
     18 C          60.2472   89.1365    8.1637 C.2     1  UNL1        0.2293
     19 O          59.6166   87.8220    8.5162 O.2     1  UNL1       -0.2746
     20 H          61.7518   90.5629    8.7941 H       1  UNL1        0.1519
     21 C          59.7870   89.8876    6.9496 C.3     1  UNL1        0.1141
     22 C          60.7877   90.3674    5.9406 C.2     1  UNL1       -0.0192
     23 C          60.3275   91.1185    4.7264 C.2     1  UNL1       -0.0145
     24 C          61.3283   91.5984    3.7173 C.2     1  UNL1       -0.0161
     25 C          62.7893   91.3272    3.9225 C.2     1  UNL1       -0.0038
     26 C          63.7900   91.8071    2.9134 C.2     1  UNL1        0.0009
     27 C          63.3298   92.5582    1.6993 C.2     1  UNL1        0.0153
     28 C          61.8689   92.8293    1.4941 C.2     1  UNL1        0.0665
     29 N          60.9920   93.5063    0.4828 N.2     1  UNL1       -0.2482
     30 C          59.5707   93.3858    0.9470 C.2     1  UNL1        0.0907
     31 C          59.4071   92.6205    2.2981 C.2     1  UNL1       -0.0142
     32 C          60.8681   92.3494    2.5032 C.3     1  UNL1        0.0819
     33 C          58.4064   92.1406    3.3071 C.3     1  UNL1        0.0447
     34 C          58.8666   91.3896    4.5213 C.3     1  UNL1        0.0837
     35 N          57.8659   90.9097    5.5303 N.3     1  UNL1       -0.2681
     36 C          56.4048   91.1808    5.3252 C.3     1  UNL1        0.0899
     37 C          58.3261   90.1587    6.7445 C.3     1  UNL1        0.0859
     38 C          62.4195   85.7726   14.9622 C.3     1  UNL1        0.0022
     39 C          63.2690   86.4533   13.9302 C.3     1  UNL1        0.0273
     40 C          64.2296   87.5297   14.3409 C.3     1  UNL1        0.0022
     41 C          61.4866   90.2295   10.9561 C.3     1  UNL1        0.0516
     42 C          60.0943   90.4946   11.4471 C.3     1  UNL1        0.0047
     43 C          62.5674   91.2450   11.1815 C.3     1  UNL1        0.0047
@<TRIPOS>BOND
     1    38    39    1
     2    39    40    1
     3     1    39    1
     4     1     2    1
     5     2     3    2
     6     2     4   am
     7     4     5    1
     8     5     6    1
     9     6     7    1
    10     8     7    1
    11     8     9    1
    12     9    10    1
    13     9    11    1
    14    11    12    1
    15    12    17    1
    16    17    18   am
    17    18    19    2
    18    21    18    1
    19    21    22    1
    20    22    23    2
    21    23    24    1
    22    24    25    2
    23    25    26    1
    24    26    27    2
    25    27    28    1
    26    28    29    2
    27    29    30    1
    28    30    31    2
    29    31    32    1
    30    31    33    1
    31    34    33    1
    32    34    35    1
    33    35    36    1
    34    35    37    1
    35    12    41    1
    36    41    42    1
    37    41    43    1
    38    12    13    1
    39    13    14    2
    40    13    15   am
    41    15     1    1
    42     8     4    1
    43    15     9    1
    44    37    21    1
    45    34    23    1
    46    32    24    1
    47    32    28    1
    48    10    16    1
    49    17    20    1
