@<TRIPOS>MOLECULE
*****
 25 27 0 0 0
SMALL
GASTEIGER

@<TRIPOS>ATOM
      1 C          64.5653   90.4395   13.9745 C.3     1  UNL1        0.1398
      2 O          65.5580   90.9314   14.9857 O.3     1  UNL1       -0.3772
      3 H          65.5103   90.3784   15.7812 H       1  UNL1        0.2112
      4 C          64.1361   89.3584   14.9217 C.ar    1  UNL1        0.0069
      5 C          63.4295   89.7147   16.1960 C.ar    1  UNL1       -0.0008
      6 C          63.0003   88.6337   17.1431 C.ar    1  UNL1        0.0112
      7 C          63.2777   87.1963   16.8160 C.ar    1  UNL1        0.0577
      8 CL         62.8485   86.1153   17.7632 Cl      1  UNL1       -0.0822
      9 C          63.9843   86.8400   15.5418 C.ar    1  UNL1        0.0112
     10 C          64.4135   87.9210   14.5947 C.ar    1  UNL1       -0.0008
     11 C          64.9945   91.5204   13.0273 C.ar    1  UNL1        0.0069
     12 C          65.9849   92.5563   13.4704 C.ar    1  UNL1       -0.0017
     13 C          66.4141   93.6372   12.5232 C.ar    1  UNL1       -0.0004
     14 C          65.8529   93.6825   11.1329 C.ar    1  UNL1       -0.0005
     15 C          64.8626   92.6467   10.6897 C.ar    1  UNL1       -0.0004
     16 C          64.4333   91.5657   11.6370 C.ar    1  UNL1       -0.0017
     17 C          66.2821   94.7634   10.1857 C.2     1  UNL1        0.0249
     18 C          65.6068   96.0895    9.9968 C.2     1  UNL1        0.1194
     19 N          66.3693   96.8538    8.9554 N.2     1  UNL1       -0.1510
     20 N          67.5158   96.0001    8.5007 N.2     1  UNL1       -0.1695
     21 C          67.4619   94.7082    9.2610 C.3     1  UNL1        0.1771
     22 N          62.1035   90.0219   13.2569 N.3     1  UNL1       -0.3186
     23 C          63.5727   89.9475   12.9633 C.3     1  UNL1        0.1010
     24 H          61.5794   89.6470   12.4662 H       1  UNL1        0.1189
     25 H          61.8364   90.9941   13.4116 H       1  UNL1        0.1189
@<TRIPOS>BOND
     1    22    23    1
     2    23     1    1
     3     1     2    1
     4     1     4    1
     5     4     5   ar
     6     5     6   ar
     7     6     7   ar
     8     7     8    1
     9     7     9   ar
    10     9    10   ar
    11     1    11    1
    12    11    12   ar
    13    12    13   ar
    14    13    14   ar
    15    14    17    1
    16    17    18    2
    17    18    19    1
    18    19    20    2
    19    20    21    1
    20    14    15   ar
    21    15    16   ar
    22    10     4   ar
    23    16    11   ar
    24    21    17    1
    25    22    24    1
    26    22    25    1
    27     2     3    1
@<TRIPOS>MOLECULE
*****
 25 27 0 0 0
SMALL
GASTEIGER

@<TRIPOS>ATOM
      1 C          64.6606   91.1924   12.6188 C.3     1  UNL1        0.1398
      2 O          65.1468   91.9506   11.4193 O.3     1  UNL1       -0.3772
      3 H          65.8676   92.5440   11.6822 H       1  UNL1        0.2112
      4 C          65.6711   91.8976   13.4742 C.ar    1  UNL1        0.0069
      5 C          66.4183   91.1400   14.5313 C.ar    1  UNL1       -0.0008
      6 C          67.4287   91.8452   15.3867 C.ar    1  UNL1        0.0112
      7 C          67.6920   93.3081   15.1848 C.ar    1  UNL1        0.0577
      8 CL         68.7025   94.0133   16.0402 Cl      1  UNL1       -0.0822
      9 C          66.9448   94.0657   14.1277 C.ar    1  UNL1        0.0112
     10 C          65.9343   93.3605   13.2723 C.ar    1  UNL1       -0.0008
     11 C          63.6502   90.4871   11.7634 C.ar    1  UNL1        0.0069
     12 C          63.2220   89.0907   12.1053 C.ar    1  UNL1       -0.0017
     13 C          62.2116   88.3855   11.2500 C.ar    1  UNL1       -0.0004
     14 C          61.6292   89.0766   10.0528 C.ar    1  UNL1       -0.0005
     15 C          62.0574   90.4730    9.7109 C.ar    1  UNL1       -0.0004
     16 C          63.0679   91.1783   10.5663 C.ar    1  UNL1       -0.0017
     17 C          60.6188   88.3714    9.1975 C.2     1  UNL1        0.0249
     18 C          59.7817   88.9991    8.1226 C.2     1  UNL1        0.1194
     19 N          58.9136   87.9303    7.5276 N.2     1  UNL1       -0.1510
     20 N          59.2141   86.6420    8.2349 N.2     1  UNL1       -0.1695
     21 C          60.2680   86.9147    9.2669 C.3     1  UNL1        0.1771
     22 N          63.2440   91.0910   14.7943 N.3     1  UNL1       -0.3186
     23 C          64.1745   90.4341   13.8182 C.3     1  UNL1        0.1010
     24 H          63.0176   90.4354   15.5422 H       1  UNL1        0.1189
     25 H          62.3877   91.3679   14.3141 H       1  UNL1        0.1189
@<TRIPOS>BOND
     1    22    23    1
     2    23     1    1
     3     1     2    1
     4     1     4    1
     5     4     5   ar
     6     5     6   ar
     7     6     7   ar
     8     7     8    1
     9     7     9   ar
    10     9    10   ar
    11     1    11    1
    12    11    12   ar
    13    12    13   ar
    14    13    14   ar
    15    14    17    1
    16    17    18    2
    17    18    19    1
    18    19    20    2
    19    20    21    1
    20    14    15   ar
    21    15    16   ar
    22    10     4   ar
    23    16    11   ar
    24    21    17    1
    25    22    24    1
    26    22    25    1
    27     2     3    1
@<TRIPOS>MOLECULE
*****
 25 27 0 0 0
SMALL
GASTEIGER

@<TRIPOS>ATOM
      1 C          62.5558   89.4717   11.0778 C.3     1  UNL1        0.1398
      2 O          63.2978   89.9800    9.8774 O.3     1  UNL1       -0.3772
      3 H          62.8649   89.6603    9.0704 H       1  UNL1        0.2112
      4 C          61.5832   88.7677   10.1786 C.ar    1  UNL1        0.0069
      5 C          60.7178   89.5594    9.2436 C.ar    1  UNL1       -0.0008
      6 C          59.7453   88.8554    8.3444 C.ar    1  UNL1        0.0112
      7 C          59.6383   87.3597    8.3802 C.ar    1  UNL1        0.0577
      8 CL         58.6657   86.6557    7.4809 Cl      1  UNL1       -0.0822
      9 C          60.5037   86.5679    9.3151 C.ar    1  UNL1        0.0112
     10 C          61.4761   87.2720   10.2143 C.ar    1  UNL1       -0.0008
     11 C          63.5282   90.1757   11.9771 C.ar    1  UNL1        0.0069
     12 C          64.1366   91.4787   11.5502 C.ar    1  UNL1       -0.0017
     13 C          65.1090   92.1827   12.4495 C.ar    1  UNL1       -0.0004
     14 C          65.4733   91.5837   13.7756 C.ar    1  UNL1       -0.0005
     15 C          64.8650   90.2807   14.2024 C.ar    1  UNL1       -0.0004
     16 C          63.8925   89.5767   13.3032 C.ar    1  UNL1       -0.0017
     17 C          66.4457   92.2876   14.6748 C.2     1  UNL1        0.0249
     18 C          67.8313   92.7263   14.3037 C.2     1  UNL1        0.1194
     19 N          68.4453   93.3863   15.5026 N.2     1  UNL1       -0.1510
     20 N          67.4391   93.3555   16.6147 N.2     1  UNL1       -0.1695
     21 C          66.2034   92.6765   16.1031 C.3     1  UNL1        0.1771
     22 N          60.5604   89.6515   12.7319 N.3     1  UNL1       -0.3186
     23 C          61.8137   88.9635   12.2782 C.3     1  UNL1        0.1010
     24 H          60.1908   89.1765   13.5555 H       1  UNL1        0.1189
     25 H          59.8674   89.6238   11.9839 H       1  UNL1        0.1189
@<TRIPOS>BOND
     1    22    23    1
     2    23     1    1
     3     1     2    1
     4     1     4    1
     5     4     5   ar
     6     5     6   ar
     7     6     7   ar
     8     7     8    1
     9     7     9   ar
    10     9    10   ar
    11     1    11    1
    12    11    12   ar
    13    12    13   ar
    14    13    14   ar
    15    14    17    1
    16    17    18    2
    17    18    19    1
    18    19    20    2
    19    20    21    1
    20    14    15   ar
    21    15    16   ar
    22    10     4   ar
    23    16    11   ar
    24    21    17    1
    25    22    24    1
    26    22    25    1
    27     2     3    1
@<TRIPOS>MOLECULE
*****
 25 27 0 0 0
SMALL
GASTEIGER

@<TRIPOS>ATOM
      1 C          65.6568   92.6752   11.6819 C.3     1  UNL1        0.1398
      2 O          64.6992   92.1705   10.6436 O.3     1  UNL1       -0.3772
      3 H          64.7906   92.6988    9.8353 H       1  UNL1        0.2112
      4 C          66.1455   93.7203   10.7232 C.ar    1  UNL1        0.0069
      5 C          65.4777   95.0625   10.6726 C.ar    1  UNL1       -0.0008
      6 C          65.9663   96.1076    9.7139 C.ar    1  UNL1        0.0112
      7 C          67.1228   95.8105    8.8060 C.ar    1  UNL1        0.0577
      8 CL         67.6115   96.8556    7.8474 Cl      1  UNL1       -0.0822
      9 C          67.7906   94.4683    8.8567 C.ar    1  UNL1        0.0112
     10 C          67.3019   93.4232    9.8153 C.ar    1  UNL1       -0.0008
     11 C          65.1682   91.6301   12.6405 C.ar    1  UNL1        0.0069
     12 C          63.9216   90.8544   12.3331 C.ar    1  UNL1       -0.0017
     13 C          63.4330   89.8093   13.2917 C.ar    1  UNL1       -0.0004
     14 C          64.1909   89.5399   14.5578 C.ar    1  UNL1       -0.0005
     15 C          65.4373   90.3155   14.8653 C.ar    1  UNL1       -0.0004
     16 C          65.9260   91.3607   13.9066 C.ar    1  UNL1       -0.0017
     17 C          63.7023   88.4948   15.5164 C.2     1  UNL1        0.0249
     18 C          62.9734   88.7497   16.8024 C.2     1  UNL1        0.1194
     19 N          62.6774   87.4238   17.4382 N.2     1  UNL1       -0.1510
     20 N          63.2233   86.3493   16.5451 N.2     1  UNL1       -0.1695
     21 C          63.8567   87.0113   15.3574 C.3     1  UNL1        0.1771
     22 N          66.1394   94.1284   13.7808 N.3     1  UNL1       -0.3186
     23 C          66.6144   93.1799   12.7202 C.3     1  UNL1        0.1010
     24 H          66.9164   94.3660   14.3973 H       1  UNL1        0.1189
     25 H          65.3971   93.6873   14.3238 H       1  UNL1        0.1189
@<TRIPOS>BOND
     1    22    23    1
     2    23     1    1
     3     1     2    1
     4     1     4    1
     5     4     5   ar
     6     5     6   ar
     7     6     7   ar
     8     7     8    1
     9     7     9   ar
    10     9    10   ar
    11     1    11    1
    12    11    12   ar
    13    12    13   ar
    14    13    14   ar
    15    14    17    1
    16    17    18    2
    17    18    19    1
    18    19    20    2
    19    20    21    1
    20    14    15   ar
    21    15    16   ar
    22    10     4   ar
    23    16    11   ar
    24    21    17    1
    25    22    24    1
    26    22    25    1
    27     2     3    1
@<TRIPOS>MOLECULE
*****
 25 27 0 0 0
SMALL
GASTEIGER

@<TRIPOS>ATOM
      1 C          63.4987   84.7121   12.9850 C.3     1  UNL1        0.1398
      2 O          62.7451   85.2872   11.8226 O.3     1  UNL1       -0.3772
      3 H          62.4685   84.5706   11.2302 H       1  UNL1        0.2112
      4 C          63.3116   83.3334   12.4244 C.ar    1  UNL1        0.0069
      5 C          63.7265   83.0345   11.0143 C.ar    1  UNL1       -0.0008
      6 C          63.5393   81.6559   10.4537 C.ar    1  UNL1        0.0112
      7 C          62.9372   80.5761   11.3032 C.ar    1  UNL1        0.0577
      8 CL         62.7500   79.1975   10.7425 Cl      1  UNL1       -0.0822
      9 C          62.5223   80.8750   12.7133 C.ar    1  UNL1        0.0112
     10 C          62.7094   82.2537   13.2739 C.ar    1  UNL1       -0.0008
     11 C          63.6859   86.0907   13.5457 C.ar    1  UNL1        0.0069
     12 C          63.5023   87.2903   12.6640 C.ar    1  UNL1       -0.0017
     13 C          63.6894   88.6688   13.2247 C.ar    1  UNL1       -0.0004
     14 C          64.0603   88.8479   14.6671 C.ar    1  UNL1       -0.0005
     15 C          64.2439   87.6484   15.5488 C.ar    1  UNL1       -0.0004
     16 C          64.0567   86.2697   14.9881 C.ar    1  UNL1       -0.0017
     17 C          64.2474   90.2265   15.2278 C.2     1  UNL1        0.0249
     18 C          65.2337   91.2483   14.7449 C.2     1  UNL1        0.1194
     19 N          65.0770   92.4787   15.5884 N.2     1  UNL1       -0.1510
     20 N          63.9939   92.2172   16.5928 N.2     1  UNL1       -0.1695
     21 C          63.4813   90.8253   16.3698 C.3     1  UNL1        0.1771
     22 N          65.7521   84.1146   14.1319 N.3     1  UNL1       -0.3186
     23 C          64.2523   84.1370   14.1475 C.3     1  UNL1        0.1010
     24 H          66.0948   83.6921   14.9947 H       1  UNL1        0.1189
     25 H          66.1056   85.0684   14.0567 H       1  UNL1        0.1189
@<TRIPOS>BOND
     1    22    23    1
     2    23     1    1
     3     1     2    1
     4     1     4    1
     5     4     5   ar
     6     5     6   ar
     7     6     7   ar
     8     7     8    1
     9     7     9   ar
    10     9    10   ar
    11     1    11    1
    12    11    12   ar
    13    12    13   ar
    14    13    14   ar
    15    14    17    1
    16    17    18    2
    17    18    19    1
    18    19    20    2
    19    20    21    1
    20    14    15   ar
    21    15    16   ar
    22    10     4   ar
    23    16    11   ar
    24    21    17    1
    25    22    24    1
    26    22    25    1
    27     2     3    1
@<TRIPOS>MOLECULE
*****
 25 27 0 0 0
SMALL
GASTEIGER

@<TRIPOS>ATOM
      1 C          62.5748   87.8402   10.6782 C.3     1  UNL1        0.1398
      2 O          62.3774   89.0671    9.8382 O.3     1  UNL1       -0.3772
      3 H          62.0300   88.8117    8.9694 H       1  UNL1        0.2112
      4 C          62.0747   86.9873    9.5501 C.ar    1  UNL1        0.0069
      5 C          60.6692   87.1505    9.0525 C.ar    1  UNL1       -0.0008
      6 C          60.1692   86.2976    7.9245 C.ar    1  UNL1        0.0112
      7 C          61.0748   85.2816    7.2940 C.ar    1  UNL1        0.0577
      8 CL         60.5748   84.4287    6.1659 Cl      1  UNL1       -0.0822
      9 C          62.4804   85.1184    7.7916 C.ar    1  UNL1        0.0112
     10 C          62.9804   85.9713    8.9196 C.ar    1  UNL1       -0.0008
     11 C          63.0748   88.6930   11.8063 C.ar    1  UNL1        0.0069
     12 C          63.0415   90.1881   11.6882 C.ar    1  UNL1       -0.0017
     13 C          63.5415   91.0409   12.8163 C.ar    1  UNL1       -0.0004
     14 C          64.0749   90.3988   14.0626 C.ar    1  UNL1       -0.0005
     15 C          64.1082   88.9038   14.1808 C.ar    1  UNL1       -0.0004
     16 C          63.6081   88.0509   13.0526 C.ar    1  UNL1       -0.0017
     17 C          64.5749   91.2516   15.1906 C.2     1  UNL1        0.0249
     18 C          65.8533   92.0362   15.2032 C.2     1  UNL1        0.1194
     19 N          65.9528   92.7391   16.5246 N.2     1  UNL1       -0.1510
     20 N          64.7359   92.3888   17.3287 N.2     1  UNL1       -0.1695
     21 C          63.8843   91.4695   16.5043 C.3     1  UNL1        0.1771
     22 N          61.5862   85.8080   11.9599 N.3     1  UNL1       -0.3186
     23 C          62.7722   86.6133   11.5183 C.3     1  UNL1        0.1010
     24 H          61.9025   85.0152   12.5184 H       1  UNL1        0.1189
     25 H          61.0824   85.4675   11.1410 H       1  UNL1        0.1189
@<TRIPOS>BOND
     1    22    23    1
     2    23     1    1
     3     1     2    1
     4     1     4    1
     5     4     5   ar
     6     5     6   ar
     7     6     7   ar
     8     7     8    1
     9     7     9   ar
    10     9    10   ar
    11     1    11    1
    12    11    12   ar
    13    12    13   ar
    14    13    14   ar
    15    14    17    1
    16    17    18    2
    17    18    19    1
    18    19    20    2
    19    20    21    1
    20    14    15   ar
    21    15    16   ar
    22    10     4   ar
    23    16    11   ar
    24    21    17    1
    25    22    24    1
    26    22    25    1
    27     2     3    1
@<TRIPOS>MOLECULE
*****
 25 27 0 0 0
SMALL
GASTEIGER

@<TRIPOS>ATOM
      1 C          65.0452   91.1278   13.0303 C.3     1  UNL1        0.1398
      2 O          64.7746   90.1055   14.0941 O.3     1  UNL1       -0.3772
      3 H          65.3536   90.2696   14.8549 H       1  UNL1        0.2112
      4 C          66.0905   91.7583   13.9019 C.ar    1  UNL1        0.0069
      5 C          65.7275   92.2518   15.2711 C.ar    1  UNL1       -0.0008
      6 C          66.7728   92.8823   16.1426 C.ar    1  UNL1        0.0112
      7 C          68.1812   93.0193   15.6451 C.ar    1  UNL1        0.0577
      8 CL         69.2266   93.6498   16.5167 Cl      1  UNL1       -0.0822
      9 C          68.5443   92.5258   14.2759 C.ar    1  UNL1        0.0112
     10 C          67.4990   91.8953   13.4044 C.ar    1  UNL1       -0.0008
     11 C          63.9998   90.4973   12.1587 C.ar    1  UNL1        0.0069
     12 C          63.4159   89.1666   12.5308 C.ar    1  UNL1       -0.0017
     13 C          62.3706   88.5362   11.6591 C.ar    1  UNL1       -0.0004
     14 C          61.9092   89.2363   10.4154 C.ar    1  UNL1       -0.0005
     15 C          62.4931   90.5669   10.0433 C.ar    1  UNL1       -0.0004
     16 C          63.5384   91.1974   10.9149 C.ar    1  UNL1       -0.0017
     17 C          60.8638   88.6058    9.5437 C.2     1  UNL1        0.0249
     18 C          60.3866   87.1861    9.6256 C.2     1  UNL1        0.1194
     19 N          59.3400   86.9872    8.5697 N.2     1  UNL1       -0.1510
     20 N          59.1704   88.2841    7.8351 N.2     1  UNL1       -0.1695
     21 C          60.1122   89.2844    8.4371 C.3     1  UNL1        0.1771
     22 N          65.3666   93.6066   12.3215 N.3     1  UNL1       -0.3186
     23 C          65.3157   92.1500   11.9665 C.3     1  UNL1        0.1010
     24 H          65.5596   94.1543   11.4830 H       1  UNL1        0.1189
     25 H          66.1048   93.7637   13.0076 H       1  UNL1        0.1189
@<TRIPOS>BOND
     1    22    23    1
     2    23     1    1
     3     1     2    1
     4     1     4    1
     5     4     5   ar
     6     5     6   ar
     7     6     7   ar
     8     7     8    1
     9     7     9   ar
    10     9    10   ar
    11     1    11    1
    12    11    12   ar
    13    12    13   ar
    14    13    14   ar
    15    14    17    1
    16    17    18    2
    17    18    19    1
    18    19    20    2
    19    20    21    1
    20    14    15   ar
    21    15    16   ar
    22    10     4   ar
    23    16    11   ar
    24    21    17    1
    25    22    24    1
    26    22    25    1
    27     2     3    1
@<TRIPOS>MOLECULE
*****
 25 27 0 0 0
SMALL
GASTEIGER

@<TRIPOS>ATOM
      1 C          63.5600   84.7453   12.6692 C.3     1  UNL1        0.1398
      2 O          64.8410   84.2896   13.3027 O.3     1  UNL1       -0.3772
      3 H          65.0137   83.3676   13.0559 H       1  UNL1        0.2112
      4 C          63.3904   83.3940   12.0402 C.ar    1  UNL1        0.0069
      5 C          64.0568   83.0867   10.7321 C.ar    1  UNL1       -0.0008
      6 C          63.8872   81.7355   10.1032 C.ar    1  UNL1        0.0112
      7 C          63.0512   80.6917   10.7825 C.ar    1  UNL1        0.0577
      8 CL         62.8816   79.3404   10.1536 Cl      1  UNL1       -0.0822
      9 C          62.3848   80.9990   12.0907 C.ar    1  UNL1        0.0112
     10 C          62.5544   82.3502   12.7196 C.ar    1  UNL1       -0.0008
     11 C          63.7296   86.0964   13.2980 C.ar    1  UNL1        0.0069
     12 C          63.3929   87.3337   12.5195 C.ar    1  UNL1       -0.0017
     13 C          63.5625   88.6848   13.1484 C.ar    1  UNL1       -0.0004
     14 C          64.0687   88.7989   14.5558 C.ar    1  UNL1       -0.0005
     15 C          64.4053   87.5618   15.3343 C.ar    1  UNL1       -0.0004
     16 C          64.2358   86.2105   14.7054 C.ar    1  UNL1       -0.0017
     17 C          64.2382   90.1501   15.1846 C.2     1  UNL1        0.0249
     18 C          63.4400   90.6952   16.3317 C.2     1  UNL1        0.1194
     19 N          63.9442   92.0754   16.6329 N.2     1  UNL1       -0.1510
     20 N          65.0541   92.3833   15.6719 N.2     1  UNL1       -0.1695
     21 C          65.2358   91.1934   14.7768 C.3     1  UNL1        0.1771
     22 N          62.1734   85.2966   10.5423 N.3     1  UNL1       -0.3186
     23 C          62.2791   85.2009   12.0356 C.3     1  UNL1        0.1010
     24 H          61.2403   85.6202   10.2875 H       1  UNL1        0.1189
     25 H          62.3392   84.3784   10.1302 H       1  UNL1        0.1189
@<TRIPOS>BOND
     1    22    23    1
     2    23     1    1
     3     1     2    1
     4     1     4    1
     5     4     5   ar
     6     5     6   ar
     7     6     7   ar
     8     7     8    1
     9     7     9   ar
    10     9    10   ar
    11     1    11    1
    12    11    12   ar
    13    12    13   ar
    14    13    14   ar
    15    14    17    1
    16    17    18    2
    17    18    19    1
    18    19    20    2
    19    20    21    1
    20    14    15   ar
    21    15    16   ar
    22    10     4   ar
    23    16    11   ar
    24    21    17    1
    25    22    24    1
    26    22    25    1
    27     2     3    1
@<TRIPOS>MOLECULE
*****
 25 27 0 0 0
SMALL
GASTEIGER

@<TRIPOS>ATOM
      1 C          63.3594   85.4677   13.5844 C.3     1  UNL1        0.1398
      2 O          62.3724   85.8139   12.5093 O.3     1  UNL1       -0.3772
      3 H          61.9066   85.0111   12.2274 H       1  UNL1        0.2112
      4 C          62.9443   84.0286   13.5022 C.ar    1  UNL1        0.0069
      5 C          62.3684   83.3441   14.7062 C.ar    1  UNL1       -0.0008
      6 C          61.9533   81.9051   14.6240 C.ar    1  UNL1        0.0112
      7 C          62.1142   81.1505   13.3376 C.ar    1  UNL1        0.0577
      8 CL         61.6991   79.7113   13.2554 Cl      1  UNL1       -0.0822
      9 C          62.6901   81.8349   12.1335 C.ar    1  UNL1        0.0112
     10 C          63.1052   83.2739   12.2158 C.ar    1  UNL1       -0.0008
     11 C          63.7745   86.9067   13.6667 C.ar    1  UNL1        0.0069
     12 C          64.6074   87.3823   14.8201 C.ar    1  UNL1       -0.0017
     13 C          65.0225   88.8213   14.9024 C.ar    1  UNL1       -0.0004
     14 C          64.6048   89.7848   13.8313 C.ar    1  UNL1       -0.0005
     15 C          63.7720   89.3093   12.6780 C.ar    1  UNL1       -0.0004
     16 C          63.3569   87.8702   12.5957 C.ar    1  UNL1       -0.0017
     17 C          65.0200   91.2239   13.9136 C.2     1  UNL1        0.0249
     18 C          65.1300   92.1771   12.7606 C.2     1  UNL1        0.1194
     19 N          65.5760   93.5047   13.2977 N.2     1  UNL1       -0.1510
     20 N          65.7416   93.3720   14.7827 N.2     1  UNL1       -0.1695
     21 C          65.3979   91.9624   15.1633 C.3     1  UNL1        0.1771
     22 N          65.6341   84.4391   14.3041 N.3     1  UNL1       -0.3186
     23 C          64.3464   85.1215   14.6596 C.3     1  UNL1        0.1010
     24 H          66.1801   84.2807   15.1510 H       1  UNL1        0.1189
     25 H          66.1651   85.0280   13.6625 H       1  UNL1        0.1189
@<TRIPOS>BOND
     1    22    23    1
     2    23     1    1
     3     1     2    1
     4     1     4    1
     5     4     5   ar
     6     5     6   ar
     7     6     7   ar
     8     7     8    1
     9     7     9   ar
    10     9    10   ar
    11     1    11    1
    12    11    12   ar
    13    12    13   ar
    14    13    14   ar
    15    14    17    1
    16    17    18    2
    17    18    19    1
    18    19    20    2
    19    20    21    1
    20    14    15   ar
    21    15    16   ar
    22    10     4   ar
    23    16    11   ar
    24    21    17    1
    25    22    24    1
    26    22    25    1
    27     2     3    1
