@<TRIPOS>MOLECULE
*****
 33 36 0 0 0
SMALL
GASTEIGER

@<TRIPOS>ATOM
      1 N          54.8053   95.9999   -3.8188 N.am    1  UNL1       -0.2684
      2 C          55.7178   94.8861   -4.2391 C.2     1  UNL1        0.3078
      3 O          55.2780   93.9135   -5.2931 O.2     1  UNL1       -0.2522
      4 N          57.0701   94.7448   -3.6056 N.am    1  UNL1       -0.2605
      5 C          57.9826   93.6310   -4.0260 C.3     1  UNL1        0.1164
      6 C          59.3349   93.4897   -3.3924 C.3     1  UNL1        0.1137
      7 N          59.7746   94.4622   -2.3385 N.pl3   1  UNL1       -0.2912
      8 C          58.8621   95.5761   -1.9182 C.3     1  UNL1        0.0941
      9 C          59.3019   96.5486   -0.8643 C.3     1  UNL1        0.0233
     10 C          57.5098   95.7174   -2.5517 C.3     1  UNL1        0.1147
     11 H          55.0940   96.6382   -3.1271 H       1  UNL1        0.1564
     12 C          61.1269   94.3210   -1.7050 C.ar    1  UNL1        0.1391
     13 N          62.3439   94.8413   -2.4109 N.ar    1  UNL1       -0.1989
     14 C          63.6962   94.7002   -1.7774 C.ar    1  UNL1        0.2162
     15 N          64.9132   95.2205   -2.4833 N.pl3   1  UNL1       -0.3274
     16 N          63.8315   94.0387   -0.4379 N.ar    1  UNL1       -0.1951
     17 C          62.6146   93.5184    0.2680 C.ar    1  UNL1        0.1665
     18 C          61.2623   93.6595   -0.3655 C.ar    1  UNL1        0.0880
     19 C          60.2505   93.0543    0.5618 C.ar    1  UNL1        0.1260
     20 N          60.9775   92.5390    1.7684 N.ar    1  UNL1       -0.1662
     21 N          62.4386   92.8258    1.5868 N.ar    1  UNL1       -0.2318
     22 C          63.5317   92.4807    2.5543 C.3     1  UNL1        0.1554
     23 H          64.8244   95.6546   -3.3624 H       1  UNL1        0.1452
     24 H          65.8007   95.1278   -2.0674 H       1  UNL1        0.1452
     25 C          50.7484   96.4237   -5.7194 C.ar    1  UNL1        0.1385
     26 C          51.9858   96.5344   -6.5601 C.ar    1  UNL1        0.0382
     27 C          53.3381   96.3932   -5.9265 C.ar    1  UNL1        0.0175
     28 C          53.4530   96.1412   -4.4523 C.ar    1  UNL1        0.0478
     29 C          52.2157   96.0305   -3.6117 C.ar    1  UNL1       -0.0053
     30 C          52.3307   95.7785   -2.1375 C.3     1  UNL1        0.0324
     31 C          50.8634   96.1718   -4.2452 C.ar    1  UNL1        0.0339
     32 C          48.4953   95.3716   -6.4718 C.3     1  UNL1        0.2525
     33 O          49.3961   96.5650   -6.3529 O.3     1  UNL1       -0.4714
@<TRIPOS>BOND
     1    32    33    1
     2    33    25    1
     3    25    26   ar
     4    26    27   ar
     5    27    28   ar
     6    28     1    1
     7     1     2   am
     8     2     3    2
     9     2     4   am
    10     4     5    1
    11     5     6    1
    12     6     7    1
    13     7    12    1
    14    12    13   ar
    15    13    14   ar
    16    14    15    1
    17    14    16   ar
    18    16    17   ar
    19    17    18   ar
    20    18    19   ar
    21    19    20   ar
    22    20    21   ar
    23    21    22    1
    24     7     8    1
    25     8     9    1
    26     8    10    1
    27    28    29   ar
    28    29    30    1
    29    29    31   ar
    30    31    25   ar
    31    10     4    1
    32    18    12   ar
    33    21    17   ar
    34     1    11    1
    35    15    23    1
    36    15    24    1
@<TRIPOS>MOLECULE
*****
 33 36 0 0 0
SMALL
GASTEIGER

@<TRIPOS>ATOM
      1 N          72.5534   78.0305   11.4851 N.am    1  UNL1       -0.2684
      2 C          71.3842   77.8725   12.4113 C.2     1  UNL1        0.3078
      3 O          70.2373   78.8370   12.3425 O.2     1  UNL1       -0.2522
      4 N          71.3617   76.7502   13.4062 N.am    1  UNL1       -0.2605
      5 C          70.1925   76.5923   14.3324 C.3     1  UNL1        0.1164
      6 C          70.1700   75.4699   15.3273 C.3     1  UNL1        0.1137
      7 N          71.3168   74.5056   15.3960 N.pl3   1  UNL1       -0.2912
      8 C          72.4861   74.6635   14.4698 C.3     1  UNL1        0.0941
      9 C          73.6329   73.6991   14.5386 C.3     1  UNL1        0.0233
     10 C          72.5086   75.7859   13.4749 C.3     1  UNL1        0.1147
     11 H          73.3061   77.3976   11.5302 H       1  UNL1        0.1564
     12 C          71.2945   73.3832   16.3909 C.ar    1  UNL1        0.1391
     13 N          71.3229   73.6829   17.8605 N.ar    1  UNL1       -0.1989
     14 C          71.3005   72.5607   18.8554 C.ar    1  UNL1        0.2162
     15 N          71.3290   72.8604   20.3249 N.pl3   1  UNL1       -0.3274
     16 N          71.2497   71.1386   18.3809 N.ar    1  UNL1       -0.1951
     17 C          71.2212   70.8389   16.9114 C.ar    1  UNL1        0.1665
     18 C          71.2436   71.9612   15.9164 C.ar    1  UNL1        0.0880
     19 C          71.2070   71.3626   14.5416 C.ar    1  UNL1        0.1260
     20 N          71.1619   69.8703   14.6868 N.ar    1  UNL1       -0.1662
     21 N          71.1707   69.5466   16.1515 N.ar    1  UNL1       -0.2318
     22 C          71.1353   68.1721   16.7508 C.3     1  UNL1        0.1554
     23 H          71.3624   73.7937   20.6364 H       1  UNL1        0.1452
     24 H          71.3143   72.1238   20.9779 H       1  UNL1        0.1452
     25 C          72.6208   81.3975    8.5003 C.ar    1  UNL1        0.1385
     26 C          72.1746   80.0292    8.0775 C.ar    1  UNL1        0.0382
     27 C          72.1521   78.9069    9.0724 C.ar    1  UNL1        0.0175
     28 C          72.5759   79.1528   10.4902 C.ar    1  UNL1        0.0478
     29 C          73.0221   80.5211   10.9129 C.ar    1  UNL1       -0.0053
     30 C          73.4459   80.7670   12.3307 C.3     1  UNL1        0.0324
     31 C          73.0446   81.6434    9.9180 C.ar    1  UNL1        0.0339
     32 C          71.8048   82.4388    6.2643 C.3     1  UNL1        0.2525
     33 O          72.6433   82.5199    7.5054 O.3     1  UNL1       -0.4714
@<TRIPOS>BOND
     1    32    33    1
     2    33    25    1
     3    25    26   ar
     4    26    27   ar
     5    27    28   ar
     6    28     1    1
     7     1     2   am
     8     2     3    2
     9     2     4   am
    10     4     5    1
    11     5     6    1
    12     6     7    1
    13     7    12    1
    14    12    13   ar
    15    13    14   ar
    16    14    15    1
    17    14    16   ar
    18    16    17   ar
    19    17    18   ar
    20    18    19   ar
    21    19    20   ar
    22    20    21   ar
    23    21    22    1
    24     7     8    1
    25     8     9    1
    26     8    10    1
    27    28    29   ar
    28    29    30    1
    29    29    31   ar
    30    31    25   ar
    31    10     4    1
    32    18    12   ar
    33    21    17   ar
    34     1    11    1
    35    15    23    1
    36    15    24    1
@<TRIPOS>MOLECULE
*****
 33 36 0 0 0
SMALL
GASTEIGER

@<TRIPOS>ATOM
      1 N          57.9955   91.9111   -4.3047 N.am    1  UNL1       -0.2684
      2 C          57.9672   93.1257   -3.4251 C.2     1  UNL1        0.3078
      3 O          56.6559   93.7522   -3.0534 O.2     1  UNL1       -0.2522
      4 N          59.2502   93.7139   -2.9170 N.am    1  UNL1       -0.2605
      5 C          59.2219   94.9285   -2.0374 C.3     1  UNL1        0.1164
      6 C          60.5048   95.5167   -1.5294 C.3     1  UNL1        0.1137
      7 N          61.8160   94.8902   -1.9010 N.pl3   1  UNL1       -0.2912
      8 C          61.8443   93.6756   -2.7807 C.3     1  UNL1        0.0941
      9 C          63.1556   93.0491   -3.1523 C.3     1  UNL1        0.0233
     10 C          60.5614   93.0874   -3.2887 C.3     1  UNL1        0.1147
     11 H          58.8561   91.4999   -4.5486 H       1  UNL1        0.1564
     12 C          63.0990   95.4784   -1.3930 C.ar    1  UNL1        0.1391
     13 N          64.1774   95.8726   -2.3584 N.ar    1  UNL1       -0.1989
     14 C          65.4604   96.4607   -1.8505 C.ar    1  UNL1        0.2162
     15 N          66.5387   96.8548   -2.8158 N.pl3   1  UNL1       -0.3274
     16 N          65.6651   96.6546   -0.3773 N.ar    1  UNL1       -0.1951
     17 C          64.5868   96.2605    0.5881 C.ar    1  UNL1        0.1665
     18 C          63.3038   95.6723    0.0802 C.ar    1  UNL1        0.0880
     19 C          62.4276   95.3807    1.2622 C.ar    1  UNL1        0.1260
     20 N          63.1691   95.7885    2.5007 N.ar    1  UNL1       -0.1662
     21 N          64.5036   96.3323    2.0841 N.ar    1  UNL1       -0.2318
     22 C          65.5679   96.8559    3.0022 C.3     1  UNL1        0.1554
     23 H          66.4044   96.7276   -3.7828 H       1  UNL1        0.1452
     24 H          67.3808   97.2409   -2.4824 H       1  UNL1        0.1452
     25 C          54.1466   90.1465   -5.8288 C.ar    1  UNL1        0.1385
     26 C          54.5263   89.9853   -4.3866 C.ar    1  UNL1        0.0382
     27 C          55.8093   90.5735   -3.8786 C.ar    1  UNL1        0.0175
     28 C          56.7125   91.3229   -4.8127 C.ar    1  UNL1        0.0478
     29 C          56.3328   91.4841   -6.2548 C.ar    1  UNL1       -0.0053
     30 C          57.2360   92.2335   -7.1890 C.3     1  UNL1        0.0324
     31 C          55.0498   90.8959   -6.7629 C.ar    1  UNL1        0.0339
     32 C          51.9572   88.8147   -5.4013 C.3     1  UNL1        0.2525
     33 O          52.8637   89.5583   -6.3369 O.3     1  UNL1       -0.4714
@<TRIPOS>BOND
     1    32    33    1
     2    33    25    1
     3    25    26   ar
     4    26    27   ar
     5    27    28   ar
     6    28     1    1
     7     1     2   am
     8     2     3    2
     9     2     4   am
    10     4     5    1
    11     5     6    1
    12     6     7    1
    13     7    12    1
    14    12    13   ar
    15    13    14   ar
    16    14    15    1
    17    14    16   ar
    18    16    17   ar
    19    17    18   ar
    20    18    19   ar
    21    19    20   ar
    22    20    21   ar
    23    21    22    1
    24     7     8    1
    25     8     9    1
    26     8    10    1
    27    28    29   ar
    28    29    30    1
    29    29    31   ar
    30    31    25   ar
    31    10     4    1
    32    18    12   ar
    33    21    17   ar
    34     1    11    1
    35    15    23    1
    36    15    24    1
@<TRIPOS>MOLECULE
*****
 33 36 0 0 0
SMALL
GASTEIGER

@<TRIPOS>ATOM
      1 N          62.5563   87.7864    9.7110 N.am    1  UNL1       -0.2684
      2 C          62.8366   87.3879   11.1296 C.2     1  UNL1        0.3078
      3 O          62.5773   85.9802   11.5784 O.2     1  UNL1       -0.2522
      4 N          63.3763   88.3969   12.0995 N.am    1  UNL1       -0.2605
      5 C          63.6567   87.9983   13.5181 C.3     1  UNL1        0.1164
      6 C          64.1963   89.0073   14.4880 C.3     1  UNL1        0.1137
      7 N          64.4556   90.4148   14.0392 N.pl3   1  UNL1       -0.2912
      8 C          64.1753   90.8134   12.6206 C.3     1  UNL1        0.0941
      9 C          64.4346   92.2210   12.1719 C.3     1  UNL1        0.0233
     10 C          63.6356   89.8045   11.6507 C.3     1  UNL1        0.1147
     11 H          62.7265   88.7103    9.4165 H       1  UNL1        0.1564
     12 C          64.9953   91.4239   15.0091 C.ar    1  UNL1        0.1391
     13 N          64.1083   91.9813   16.0827 N.ar    1  UNL1       -0.1989
     14 C          64.6479   92.9903   17.0525 C.ar    1  UNL1        0.2162
     15 N          63.7609   93.5477   18.1262 N.pl3   1  UNL1       -0.3274
     16 N          66.0745   93.4420   16.9488 N.ar    1  UNL1       -0.1951
     17 C          66.9615   92.8847   15.8752 C.ar    1  UNL1        0.1665
     18 C          66.4219   91.8756   14.9054 C.ar    1  UNL1        0.0880
     19 C          67.5255   91.5057   13.9592 C.ar    1  UNL1        0.1260
     20 N          68.7472   92.2862   14.3443 N.ar    1  UNL1       -0.1662
     21 N          68.3987   93.1384   15.5285 N.ar    1  UNL1       -0.2318
     22 C          69.3247   94.0792   16.2408 C.3     1  UNL1        0.1554
     23 H          62.8246   93.2513   18.1943 H       1  UNL1        0.1452
     24 H          64.1151   94.2100   18.7627 H       1  UNL1        0.1452
     25 C          60.9372   84.7595    6.8013 C.ar    1  UNL1        0.1385
     26 C          62.3881   84.7335    7.1810 C.ar    1  UNL1        0.0382
     27 C          62.9278   85.7425    8.1509 C.ar    1  UNL1        0.0175
     28 C          62.0166   86.7774    8.7411 C.ar    1  UNL1        0.0478
     29 C          60.5657   86.8035    8.3615 C.ar    1  UNL1       -0.0053
     30 C          59.6544   87.8384    8.9517 C.3     1  UNL1        0.0324
     31 C          60.0260   85.7945    7.3916 C.ar    1  UNL1        0.0339
     32 C          61.1778   83.4035    4.5983 C.3     1  UNL1        0.2525
     33 O          60.3975   83.7505    5.8314 O.3     1  UNL1       -0.4714
@<TRIPOS>BOND
     1    32    33    1
     2    33    25    1
     3    25    26   ar
     4    26    27   ar
     5    27    28   ar
     6    28     1    1
     7     1     2   am
     8     2     3    2
     9     2     4   am
    10     4     5    1
    11     5     6    1
    12     6     7    1
    13     7    12    1
    14    12    13   ar
    15    13    14   ar
    16    14    15    1
    17    14    16   ar
    18    16    17   ar
    19    17    18   ar
    20    18    19   ar
    21    19    20   ar
    22    20    21   ar
    23    21    22    1
    24     7     8    1
    25     8     9    1
    26     8    10    1
    27    28    29   ar
    28    29    30    1
    29    29    31   ar
    30    31    25   ar
    31    10     4    1
    32    18    12   ar
    33    21    17   ar
    34     1    11    1
    35    15    23    1
    36    15    24    1
