@<TRIPOS>MOLECULE
*****
 32 35 0 0 0
SMALL
GASTEIGER

@<TRIPOS>ATOM
      1 C          61.2615   88.3039   10.0437 C.ar    1  UNL1        0.0951
      2 C          60.3360   88.0941    8.8820 C.ar    1  UNL1        0.1454
      3 F          59.3183   89.1402    8.5356 F       1  UNL1       -0.2040
      4 C          60.4283   86.8384    8.0669 C.ar    1  UNL1        0.0312
      5 C          61.4460   85.7923    8.4134 C.ar    1  UNL1        0.0204
      6 C          62.3715   86.0020    9.5751 C.ar    1  UNL1        0.0924
      7 C          62.2792   87.2578   10.3902 C.ar    1  UNL1        0.1598
      8 F          63.2047   87.4676   11.5519 F       1  UNL1       -0.2026
      9 O          59.8479   89.9943   11.4199 O.2     1  UNL1       -0.2864
     10 C          61.1693   89.5597   10.8589 C.2     1  UNL1        0.2015
     11 C          62.3986   90.3809   11.1130 C.ar    1  UNL1        0.0612
     12 C          63.1416   91.1942   10.0949 C.ar    1  UNL1        0.1037
     13 N          64.3029   91.8488   10.7825 N.ar    1  UNL1       -0.2269
     14 C          64.2776   91.4402   12.2255 C.ar    1  UNL1        0.1407
     15 N          65.1742   91.7770   13.3799 N.ar    1  UNL1       -0.3367
     16 C          64.8939   91.2066   14.7385 C.ar    1  UNL1        0.0850
     17 C          63.7170   90.2993   14.9428 C.ar    1  UNL1        0.0748
     18 CL         63.4366   89.7289   16.3015 Cl      1  UNL1       -0.0807
     19 C          62.8204   89.9625   13.7884 C.ar    1  UNL1        0.0160
     20 C          63.1007   90.5329   12.4298 C.ar    1  UNL1        0.0394
     21 H          65.9467   92.3725   13.2458 H       1  UNL1        0.1674
     22 N          63.3892   84.9560    9.9216 N.pl3   1  UNL1       -0.2128
     23 H          64.2529   84.9342    9.4497 H       1  UNL1        0.1738
     24 S          63.0909   83.9432   10.9871 S.O2    1  UNL1        0.0751
     25 O          64.1547   83.0442   10.4304 O.2     1  UNL1       -0.1499
     26 O          62.0270   84.8423   11.5437 O.2     1  UNL1       -0.1499
     27 C          62.7925   82.9306   12.0526 C.ar    1  UNL1        0.1442
     28 C          62.8304   81.4666   11.7277 C.ar    1  UNL1        0.0234
     29 C          62.5320   80.4538   12.7932 C.ar    1  UNL1        0.0221
     30 C          62.1957   80.9050   14.1836 C.ar    1  UNL1        0.0990
     31 N          62.1577   82.3689   14.5085 N.ar    1  UNL1       -0.2409
     32 C          62.4561   83.3817   13.4430 C.ar    1  UNL1        0.1190
@<TRIPOS>BOND
     1     9    10    2
     2    10     1    1
     3     1     2   ar
     4     2     3    1
     5     2     4   ar
     6     4     5   ar
     7     5     6   ar
     8     6    22    1
     9    22    24    1
    10    24    25    2
    11    24    26    2
    12    24    27    1
    13    27    28   ar
    14    28    29   ar
    15    29    30   ar
    16    30    31   ar
    17    31    32   ar
    18     6     7   ar
    19     7     8    1
    20    10    11    1
    21    11    12   ar
    22    12    13   ar
    23    13    14   ar
    24    14    15   ar
    25    15    16   ar
    26    16    17   ar
    27    17    18    1
    28    17    19   ar
    29    19    20   ar
    30     7     1   ar
    31    20    11   ar
    32    32    27   ar
    33    20    14    1
    34    22    23    1
    35    15    21    1
@<TRIPOS>MOLECULE
*****
 32 35 0 0 0
SMALL
GASTEIGER

@<TRIPOS>ATOM
      1 C          63.6712   90.8130   12.7898 C.ar    1  UNL1        0.0951
      2 C          63.5612   90.5949   14.2698 C.ar    1  UNL1        0.1454
      3 F          62.3885   89.8481   14.8327 F       1  UNL1       -0.2040
      4 C          64.6240   91.1237   15.1867 C.ar    1  UNL1        0.0312
      5 C          65.7967   91.8705   14.6238 C.ar    1  UNL1        0.0204
      6 C          65.9067   92.0886   13.1438 C.ar    1  UNL1        0.0924
      7 C          64.8440   91.5598   12.2268 C.ar    1  UNL1        0.1598
      8 F          64.9539   91.7779   10.7468 F       1  UNL1       -0.2026
      9 O          61.6611   91.2313   11.1979 O.2     1  UNL1       -0.2864
     10 C          62.6084   90.2842   11.8727 C.2     1  UNL1        0.2015
     11 C          62.4931   88.8084   11.6305 C.ar    1  UNL1        0.0612
     12 C          63.1461   87.7283   12.4410 C.ar    1  UNL1        0.1037
     13 N          62.7611   86.4059   11.8467 N.ar    1  UNL1       -0.2269
     14 C          61.8701   86.6688   10.6690 C.ar    1  UNL1        0.1407
     15 N          61.1882   85.7480    9.7010 N.ar    1  UNL1       -0.3367
     16 C          60.3406   86.3120    8.5995 C.ar    1  UNL1        0.0850
     17 C          60.1750   87.7968    8.4659 C.ar    1  UNL1        0.0748
     18 CL         59.3274   88.3608    7.3642 Cl      1  UNL1       -0.0807
     19 C          60.8569   88.7176    9.4338 C.ar    1  UNL1        0.0160
     20 C          61.7044   88.1536   10.5354 C.ar    1  UNL1        0.0394
     21 H          61.2969   84.7734    9.7887 H       1  UNL1        0.1674
     22 N          67.0795   92.8355   12.5809 N.pl3   1  UNL1       -0.2128
     23 H          67.9843   92.6664   12.9300 H       1  UNL1        0.1738
     24 S          66.8735   93.8398   11.4860 S.O2    1  UNL1        0.0751
     25 O          66.0856   94.7031   12.4261 O.2     1  UNL1       -0.1499
     26 O          67.6615   92.9765   10.5458 O.2     1  UNL1       -0.1499
     27 C          66.6677   94.8441   10.3910 C.ar    1  UNL1        0.1442
     28 C          67.6365   94.9168    9.2481 C.ar    1  UNL1        0.0234
     29 C          67.4307   95.9211    8.1531 C.ar    1  UNL1        0.0221
     30 C          66.2561   96.8527    8.2009 C.ar    1  UNL1        0.0990
     31 N          65.2872   96.7799    9.3438 N.ar    1  UNL1       -0.2409
     32 C          65.4930   95.7757   10.4388 C.ar    1  UNL1        0.1190
@<TRIPOS>BOND
     1     9    10    2
     2    10     1    1
     3     1     2   ar
     4     2     3    1
     5     2     4   ar
     6     4     5   ar
     7     5     6   ar
     8     6    22    1
     9    22    24    1
    10    24    25    2
    11    24    26    2
    12    24    27    1
    13    27    28   ar
    14    28    29   ar
    15    29    30   ar
    16    30    31   ar
    17    31    32   ar
    18     6     7   ar
    19     7     8    1
    20    10    11    1
    21    11    12   ar
    22    12    13   ar
    23    13    14   ar
    24    14    15   ar
    25    15    16   ar
    26    16    17   ar
    27    17    18    1
    28    17    19   ar
    29    19    20   ar
    30     7     1   ar
    31    20    11   ar
    32    32    27   ar
    33    20    14    1
    34    22    23    1
    35    15    21    1
@<TRIPOS>MOLECULE
*****
 32 35 0 0 0
SMALL
GASTEIGER

@<TRIPOS>ATOM
      1 C          62.0502   89.2834   11.6026 C.ar    1  UNL1        0.0951
      2 C          60.8205   89.7743   10.8975 C.ar    1  UNL1        0.1454
      3 F          60.2854   91.1448   11.1894 F       1  UNL1       -0.2040
      4 C          60.1261   88.8945    9.9007 C.ar    1  UNL1        0.0312
      5 C          60.6612   87.5240    9.6089 C.ar    1  UNL1        0.0204
      6 C          61.8909   87.0331   10.3139 C.ar    1  UNL1        0.0924
      7 C          62.5853   87.9128   11.3108 C.ar    1  UNL1        0.1598
      8 F          63.8149   87.4220   12.0159 F       1  UNL1       -0.2026
      9 O          62.4256   90.0389   14.0598 O.2     1  UNL1       -0.2864
     10 C          62.7447   90.1632   12.5995 C.2     1  UNL1        0.2015
     11 C          63.7582   91.1671   12.1360 C.ar    1  UNL1        0.0612
     12 C          63.9249   91.6679   10.7319 C.ar    1  UNL1        0.1037
     13 N          65.0527   92.6568   10.7234 N.ar    1  UNL1       -0.2269
     14 C          65.5830   92.7673   12.1221 C.ar    1  UNL1        0.1407
     15 N          66.6910   93.5872   12.7136 N.ar    1  UNL1       -0.3367
     16 C          66.9990   93.4865   14.1782 C.ar    1  UNL1        0.0850
     17 C          66.1989   92.5658   15.0513 C.ar    1  UNL1        0.0748
     18 CL         66.5070   92.4651   16.5159 Cl      1  UNL1       -0.0807
     19 C          65.0909   91.7458   14.4598 C.ar    1  UNL1        0.0160
     20 C          64.7830   91.8466   12.9952 C.ar    1  UNL1        0.0394
     21 H          67.2161   94.1915   12.1406 H       1  UNL1        0.1674
     22 N          62.4260   85.6625   10.0221 N.pl3   1  UNL1       -0.2128
     23 H          62.7050   85.4274    9.1077 H       1  UNL1        0.1738
     24 S          62.5359   84.6501   11.1234 S.O2    1  UNL1        0.0751
     25 O          61.5654   85.4422   11.9484 O.2     1  UNL1       -0.1499
     26 O          63.5064   83.8580   10.2984 O.2     1  UNL1       -0.1499
     27 C          62.6459   83.6377   12.2247 C.ar    1  UNL1        0.1442
     28 C          62.6570   82.1735   11.8990 C.ar    1  UNL1        0.0234
     29 C          62.7670   81.1610   13.0003 C.ar    1  UNL1        0.0221
     30 C          62.8659   81.6127   14.4272 C.ar    1  UNL1        0.0990
     31 N          62.8548   83.0769   14.7529 N.ar    1  UNL1       -0.2409
     32 C          62.7448   84.0894   13.6516 C.ar    1  UNL1        0.1190
@<TRIPOS>BOND
     1     9    10    2
     2    10     1    1
     3     1     2   ar
     4     2     3    1
     5     2     4   ar
     6     4     5   ar
     7     5     6   ar
     8     6    22    1
     9    22    24    1
    10    24    25    2
    11    24    26    2
    12    24    27    1
    13    27    28   ar
    14    28    29   ar
    15    29    30   ar
    16    30    31   ar
    17    31    32   ar
    18     6     7   ar
    19     7     8    1
    20    10    11    1
    21    11    12   ar
    22    12    13   ar
    23    13    14   ar
    24    14    15   ar
    25    15    16   ar
    26    16    17   ar
    27    17    18    1
    28    17    19   ar
    29    19    20   ar
    30     7     1   ar
    31    20    11   ar
    32    32    27   ar
    33    20    14    1
    34    22    23    1
    35    15    21    1
@<TRIPOS>MOLECULE
*****
 32 35 0 0 0
SMALL
GASTEIGER

@<TRIPOS>ATOM
      1 C          61.9007   86.4623   10.2502 C.ar    1  UNL1        0.0951
      2 C          60.8721   86.6097    9.1684 C.ar    1  UNL1        0.1454
      3 F          60.6913   85.5214    8.1521 F       1  UNL1       -0.2040
      4 C          60.0244   87.8454    9.1030 C.ar    1  UNL1        0.0312
      5 C          60.2052   88.9337   10.1193 C.ar    1  UNL1        0.0204
      6 C          61.2337   88.7863   11.2011 C.ar    1  UNL1        0.0924
      7 C          62.0815   87.5506   11.2665 C.ar    1  UNL1        0.1598
      8 F          63.1101   87.4032   12.3483 F       1  UNL1       -0.2026
      9 O          63.6273   84.8578    9.1574 O.2     1  UNL1       -0.2864
     10 C          62.7485   85.2266   10.3157 C.2     1  UNL1        0.2015
     11 C          62.7175   84.3597   11.5395 C.ar    1  UNL1        0.0612
     12 C          62.6360   84.8399   12.9582 C.ar    1  UNL1        0.1037
     13 N          62.6307   83.6375   13.8549 N.ar    1  UNL1       -0.2269
     14 C          62.7089   82.4142   12.9904 C.ar    1  UNL1        0.1407
     15 N          62.7383   80.9514   13.3214 N.ar    1  UNL1       -0.3367
     16 C          62.8212   79.9351   12.2213 C.ar    1  UNL1        0.0850
     17 C          62.8749   80.3815   10.7903 C.ar    1  UNL1        0.0748
     18 CL         62.9579   79.3651    9.6902 Cl      1  UNL1       -0.0807
     19 C          62.8456   81.8442   10.4593 C.ar    1  UNL1        0.0160
     20 C          62.7626   82.8605   11.5593 C.ar    1  UNL1        0.0394
     21 H          62.7030   80.6585   14.2606 H       1  UNL1        0.1674
     22 N          61.4145   89.8746   12.2174 N.pl3   1  UNL1       -0.2128
     23 H          60.6391   90.2097   12.7231 H       1  UNL1        0.1738
     24 S          62.7768   90.4524   12.4632 S.O2    1  UNL1        0.0751
     25 O          62.8194   90.9532   11.0499 O.2     1  UNL1       -0.1499
     26 O          62.7341   89.9517   13.8765 O.2     1  UNL1       -0.1499
     27 C          64.1390   91.0302   12.7092 C.ar    1  UNL1        0.1442
     28 C          64.8749   90.7035   13.9748 C.ar    1  UNL1        0.0234
     29 C          66.2371   91.2812   14.2208 C.ar    1  UNL1        0.0221
     30 C          66.8635   92.1857   13.2012 C.ar    1  UNL1        0.0990
     31 N          66.1276   92.5123   11.9356 N.ar    1  UNL1       -0.2409
     32 C          64.7654   91.9346   11.6896 C.ar    1  UNL1        0.1190
@<TRIPOS>BOND
     1     9    10    2
     2    10     1    1
     3     1     2   ar
     4     2     3    1
     5     2     4   ar
     6     4     5   ar
     7     5     6   ar
     8     6    22    1
     9    22    24    1
    10    24    25    2
    11    24    26    2
    12    24    27    1
    13    27    28   ar
    14    28    29   ar
    15    29    30   ar
    16    30    31   ar
    17    31    32   ar
    18     6     7   ar
    19     7     8    1
    20    10    11    1
    21    11    12   ar
    22    12    13   ar
    23    13    14   ar
    24    14    15   ar
    25    15    16   ar
    26    16    17   ar
    27    17    18    1
    28    17    19   ar
    29    19    20   ar
    30     7     1   ar
    31    20    11   ar
    32    32    27   ar
    33    20    14    1
    34    22    23    1
    35    15    21    1
@<TRIPOS>MOLECULE
*****
 32 35 0 0 0
SMALL
GASTEIGER

@<TRIPOS>ATOM
      1 C          63.9975   88.4043   15.3238 C.ar    1  UNL1        0.0951
      2 C          63.1195   88.8676   16.4483 C.ar    1  UNL1        0.1454
      3 F          62.8002   90.3255   16.5987 F       1  UNL1       -0.2040
      4 C          62.5610   87.8731   17.4224 C.ar    1  UNL1        0.0312
      5 C          62.8804   86.4152   17.2719 C.ar    1  UNL1        0.0204
      6 C          63.7583   85.9519   16.1474 C.ar    1  UNL1        0.0924
      7 C          64.3168   86.9465   15.1734 C.ar    1  UNL1        0.1598
      8 F          65.1948   86.4832   14.0488 F       1  UNL1       -0.2026
      9 O          65.9092   90.0014   14.5859 O.2     1  UNL1       -0.2864
     10 C          64.5561   89.3989   14.3496 C.2     1  UNL1        0.2015
     11 C          63.7615   89.7909   13.1393 C.ar    1  UNL1        0.0612
     12 C          63.5382   91.1898   12.6462 C.ar    1  UNL1        0.1037
     13 N          62.6893   91.1161   11.4117 N.ar    1  UNL1       -0.2269
     14 C          62.3880   89.6717   11.1418 C.ar    1  UNL1        0.1407
     15 N          61.5959   88.9965   10.0617 N.ar    1  UNL1       -0.3367
     16 C          61.4664   87.5022   10.0494 C.ar    1  UNL1        0.0850
     17 C          62.1290   86.6831   11.1171 C.ar    1  UNL1        0.0748
     18 CL         61.9995   85.1887   11.1047 Cl      1  UNL1       -0.0807
     19 C          62.9211   87.3583   12.1972 C.ar    1  UNL1        0.0160
     20 C          63.0506   88.8526   12.2095 C.ar    1  UNL1        0.0394
     21 H          61.1610   89.5341    9.3609 H       1  UNL1        0.1674
     22 N          64.0777   84.4940   15.9970 N.pl3   1  UNL1       -0.2128
     23 H          64.3811   83.9736   16.7757 H       1  UNL1        0.1738
     24 S          63.9348   83.8290   14.6601 S.O2    1  UNL1        0.0751
     25 O          62.4416   83.8981   14.7853 O.2     1  UNL1       -0.1499
     26 O          65.4279   83.7599   14.5348 O.2     1  UNL1       -0.1499
     27 C          63.7920   83.1640   13.3232 C.ar    1  UNL1        0.1442
     28 C          62.6665   82.2026   13.0801 C.ar    1  UNL1        0.0234
     29 C          62.5236   81.5376   11.7432 C.ar    1  UNL1        0.0221
     30 C          63.5062   81.8339   10.6493 C.ar    1  UNL1        0.0990
     31 N          64.6317   82.7953   10.8924 N.ar    1  UNL1       -0.2409
     32 C          64.7746   83.4603   12.2293 C.ar    1  UNL1        0.1190
@<TRIPOS>BOND
     1     9    10    2
     2    10     1    1
     3     1     2   ar
     4     2     3    1
     5     2     4   ar
     6     4     5   ar
     7     5     6   ar
     8     6    22    1
     9    22    24    1
    10    24    25    2
    11    24    26    2
    12    24    27    1
    13    27    28   ar
    14    28    29   ar
    15    29    30   ar
    16    30    31   ar
    17    31    32   ar
    18     6     7   ar
    19     7     8    1
    20    10    11    1
    21    11    12   ar
    22    12    13   ar
    23    13    14   ar
    24    14    15   ar
    25    15    16   ar
    26    16    17   ar
    27    17    18    1
    28    17    19   ar
    29    19    20   ar
    30     7     1   ar
    31    20    11   ar
    32    32    27   ar
    33    20    14    1
    34    22    23    1
    35    15    21    1
@<TRIPOS>MOLECULE
*****
 32 35 0 0 0
SMALL
GASTEIGER

@<TRIPOS>ATOM
      1 C          64.4407   91.1171   12.7170 C.ar    1  UNL1        0.0951
      2 C          65.1464   91.9232   11.6671 C.ar    1  UNL1        0.1454
      3 F          66.4892   92.5243   11.9597 F       1  UNL1       -0.2040
      4 C          64.5093   92.1281   10.3247 C.ar    1  UNL1        0.0312
      5 C          63.1665   91.5269   10.0321 C.ar    1  UNL1        0.0204
      6 C          62.4608   90.7209   11.0820 C.ar    1  UNL1        0.0924
      7 C          63.0979   90.5160   12.4244 C.ar    1  UNL1        0.1598
      8 F          62.3922   89.7099   13.4743 F       1  UNL1       -0.2026
      9 O          66.5051   91.3160   14.2817 O.2     1  UNL1       -0.2864
     10 C          65.0778   90.9121   14.0595 C.2     1  UNL1        0.2015
     11 C          64.2874   90.3032   15.1796 C.ar    1  UNL1        0.0612
     12 C          63.5559   91.0542   16.2523 C.ar    1  UNL1        0.1037
     13 N          62.9062   90.0515   17.1593 N.ar    1  UNL1       -0.2269
     14 C          63.2363   88.6809   16.6471 C.ar    1  UNL1        0.1407
     15 N          62.8699   87.3113   17.1368 N.ar    1  UNL1       -0.3367
     16 C          63.3571   86.0972   16.4029 C.ar    1  UNL1        0.0850
     17 C          64.2107   86.2528   15.1793 C.ar    1  UNL1        0.0748
     18 CL         64.6979   85.0386   14.4454 Cl      1  UNL1       -0.0807
     19 C          64.5772   87.6224   14.6897 C.ar    1  UNL1        0.0160
     20 C          64.0900   88.8364   15.4236 C.ar    1  UNL1        0.0394
     21 H          62.3096   87.2092   17.9398 H       1  UNL1        0.1674
     22 N          61.1180   90.1197   10.7894 N.pl3   1  UNL1       -0.2128
     23 H          60.3046   90.5234   11.1696 H       1  UNL1        0.1738
     24 S          61.0147   88.9036    9.9175 S.O2    1  UNL1        0.0751
     25 O          61.9387   88.1642   10.8392 O.2     1  UNL1       -0.1499
     26 O          60.0907   89.6429    8.9958 O.2     1  UNL1       -0.1499
     27 C          60.9113   87.6875    9.0456 C.ar    1  UNL1        0.1442
     28 C          62.0788   86.7542    8.9184 C.ar    1  UNL1        0.0234
     29 C          61.9754   85.5381    8.0465 C.ar    1  UNL1        0.0221
     30 C          60.7046   85.2551    7.3016 C.ar    1  UNL1        0.0990
     31 N          59.5371   86.1883    7.4288 N.ar    1  UNL1       -0.2409
     32 C          59.6404   87.4045    8.3007 C.ar    1  UNL1        0.1190
@<TRIPOS>BOND
     1     9    10    2
     2    10     1    1
     3     1     2   ar
     4     2     3    1
     5     2     4   ar
     6     4     5   ar
     7     5     6   ar
     8     6    22    1
     9    22    24    1
    10    24    25    2
    11    24    26    2
    12    24    27    1
    13    27    28   ar
    14    28    29   ar
    15    29    30   ar
    16    30    31   ar
    17    31    32   ar
    18     6     7   ar
    19     7     8    1
    20    10    11    1
    21    11    12   ar
    22    12    13   ar
    23    13    14   ar
    24    14    15   ar
    25    15    16   ar
    26    16    17   ar
    27    17    18    1
    28    17    19   ar
    29    19    20   ar
    30     7     1   ar
    31    20    11   ar
    32    32    27   ar
    33    20    14    1
    34    22    23    1
    35    15    21    1
@<TRIPOS>MOLECULE
*****
 32 35 0 0 0
SMALL
GASTEIGER

@<TRIPOS>ATOM
      1 C          63.9909   86.8730   15.2507 C.ar    1  UNL1        0.0951
      2 C          63.3540   86.4230   16.5321 C.ar    1  UNL1        0.1454
      3 F          63.2477   84.9596   16.8433 F       1  UNL1       -0.2040
      4 C          62.8234   87.4367   17.5021 C.ar    1  UNL1        0.0312
      5 C          62.9296   88.9001   17.1908 C.ar    1  UNL1        0.0204
      6 C          63.5665   89.3501   15.9094 C.ar    1  UNL1        0.0924
      7 C          64.0971   88.3365   14.9394 C.ar    1  UNL1        0.1598
      8 F          64.7340   88.7863   13.6579 F       1  UNL1       -0.2026
      9 O          65.9415   85.3886   14.3896 O.2     1  UNL1       -0.2864
     10 C          64.5215   85.8593   14.2805 C.2     1  UNL1        0.2015
     11 C          63.6321   85.3166   13.2014 C.ar    1  UNL1        0.0612
     12 C          63.2783   83.8739   12.9931 C.ar    1  UNL1        0.1037
     13 N          62.3679   83.7870   11.8041 N.ar    1  UNL1       -0.2269
     14 C          62.1591   85.1760   11.2776 C.ar    1  UNL1        0.1407
     15 N          61.3585   85.7020   10.1234 N.ar    1  UNL1       -0.3367
     16 C          61.3392   87.1735    9.8329 C.ar    1  UNL1        0.0850
     17 C          62.1205   88.1188   10.6965 C.ar    1  UNL1        0.0748
     18 CL         62.1012   89.5903   10.4058 Cl      1  UNL1       -0.0807
     19 C          62.9212   87.5928   11.8506 C.ar    1  UNL1        0.0160
     20 C          62.9405   86.1213   12.1412 C.ar    1  UNL1        0.0394
     21 H          60.8457   85.0816    9.5566 H       1  UNL1        0.1674
     22 N          63.6728   90.8136   15.5981 N.pl3   1  UNL1       -0.2128
     23 H          63.2121   91.4724   16.1664 H       1  UNL1        0.1738
     24 S          64.4808   91.2732   14.4209 S.O2    1  UNL1        0.0751
     25 O          65.7124   91.3000   15.2767 O.2     1  UNL1       -0.1499
     26 O          63.2492   91.2464   13.5651 O.2     1  UNL1       -0.1499
     27 C          65.2887   91.7328   13.2437 C.ar    1  UNL1        0.1442
     28 C          64.6313   91.9143   11.9077 C.ar    1  UNL1        0.0234
     29 C          65.4391   92.3740   10.7304 C.ar    1  UNL1        0.0221
     30 C          66.9045   92.6521   10.8890 C.ar    1  UNL1        0.0990
     31 N          67.5620   92.4705   12.2250 N.ar    1  UNL1       -0.2409
     32 C          66.7541   92.0109   13.4023 C.ar    1  UNL1        0.1190
@<TRIPOS>BOND
     1     9    10    2
     2    10     1    1
     3     1     2   ar
     4     2     3    1
     5     2     4   ar
     6     4     5   ar
     7     5     6   ar
     8     6    22    1
     9    22    24    1
    10    24    25    2
    11    24    26    2
    12    24    27    1
    13    27    28   ar
    14    28    29   ar
    15    29    30   ar
    16    30    31   ar
    17    31    32   ar
    18     6     7   ar
    19     7     8    1
    20    10    11    1
    21    11    12   ar
    22    12    13   ar
    23    13    14   ar
    24    14    15   ar
    25    15    16   ar
    26    16    17   ar
    27    17    18    1
    28    17    19   ar
    29    19    20   ar
    30     7     1   ar
    31    20    11   ar
    32    32    27   ar
    33    20    14    1
    34    22    23    1
    35    15    21    1
@<TRIPOS>MOLECULE
*****
 32 35 0 0 0
SMALL
GASTEIGER

@<TRIPOS>ATOM
      1 C          63.9288   86.9691   15.3661 C.ar    1  UNL1        0.0951
      2 C          63.5782   87.1456   16.8138 C.ar    1  UNL1        0.1454
      3 F          63.8319   86.0336   17.7880 F       1  UNL1       -0.2040
      4 C          62.9738   88.4342   17.2873 C.ar    1  UNL1        0.0312
      5 C          62.7200   89.5462   16.3131 C.ar    1  UNL1        0.0204
      6 C          63.0707   89.3697   14.8654 C.ar    1  UNL1        0.0924
      7 C          63.6750   88.0811   14.3919 C.ar    1  UNL1        0.1598
      8 F          64.0257   87.9045   12.9442 F       1  UNL1       -0.2026
      9 O          66.0006   85.6066   14.5908 O.2     1  UNL1       -0.2864
     10 C          64.5332   85.6804   14.8925 C.2     1  UNL1        0.2015
     11 C          63.6701   84.4657   14.7206 C.ar    1  UNL1        0.0612
     12 C          62.7613   83.8759   15.7580 C.ar    1  UNL1        0.1037
     13 N          62.0938   82.6733   15.1596 N.ar    1  UNL1       -0.2269
     14 C          62.5900   82.5198   13.7524 C.ar    1  UNL1        0.1407
     15 N          62.2806   81.5144   12.6831 N.ar    1  UNL1       -0.3367
     16 C          62.9455   81.6169   11.3424 C.ar    1  UNL1        0.0850
     17 C          63.9197   82.7247   11.0711 C.ar    1  UNL1        0.0748
     18 CL         64.5846   82.8271    9.7303 Cl      1  UNL1       -0.0807
     19 C          64.2291   83.7301   12.1404 C.ar    1  UNL1        0.0160
     20 C          63.5642   83.6276   13.4811 C.ar    1  UNL1        0.0394
     21 H          61.6412   80.7873   12.8612 H       1  UNL1        0.1674
     22 N          62.8169   90.4817   13.8913 N.pl3   1  UNL1       -0.2128
     23 H          61.8964   90.7866   13.7211 H       1  UNL1        0.1738
     24 S          63.9656   91.1292   13.1763 S.O2    1  UNL1        0.0751
     25 O          64.5030   91.6228   14.4869 O.2     1  UNL1       -0.1499
     26 O          63.4283   90.6356   11.8658 O.2     1  UNL1       -0.1499
     27 C          65.1143   91.7767   12.4614 C.ar    1  UNL1        0.1442
     28 C          64.9600   92.2121   11.0342 C.ar    1  UNL1        0.0234
     29 C          66.1087   92.8595   10.3192 C.ar    1  UNL1        0.0221
     30 C          67.4117   93.0716   11.0312 C.ar    1  UNL1        0.0990
     31 N          67.5661   92.6363   12.4583 N.ar    1  UNL1       -0.2409
     32 C          66.4174   91.9888   13.1734 C.ar    1  UNL1        0.1190
@<TRIPOS>BOND
     1     9    10    2
     2    10     1    1
     3     1     2   ar
     4     2     3    1
     5     2     4   ar
     6     4     5   ar
     7     5     6   ar
     8     6    22    1
     9    22    24    1
    10    24    25    2
    11    24    26    2
    12    24    27    1
    13    27    28   ar
    14    28    29   ar
    15    29    30   ar
    16    30    31   ar
    17    31    32   ar
    18     6     7   ar
    19     7     8    1
    20    10    11    1
    21    11    12   ar
    22    12    13   ar
    23    13    14   ar
    24    14    15   ar
    25    15    16   ar
    26    16    17   ar
    27    17    18    1
    28    17    19   ar
    29    19    20   ar
    30     7     1   ar
    31    20    11   ar
    32    32    27   ar
    33    20    14    1
    34    22    23    1
    35    15    21    1
@<TRIPOS>MOLECULE
*****
 32 35 0 0 0
SMALL
GASTEIGER

@<TRIPOS>ATOM
      1 C          61.8554   86.2717   10.1021 C.ar    1  UNL1        0.0951
      2 C          60.6851   86.3113    9.1646 C.ar    1  UNL1        0.1454
      3 F          60.4835   85.2071    8.1695 F       1  UNL1       -0.2040
      4 C          59.7165   87.4551    9.2222 C.ar    1  UNL1        0.0312
      5 C          59.9181   88.5593   10.2173 C.ar    1  UNL1        0.0204
      6 C          61.0884   88.5197   11.1548 C.ar    1  UNL1        0.0924
      7 C          62.0570   87.3758   11.0972 C.ar    1  UNL1        0.1598
      8 F          63.2273   87.3361   12.0346 F       1  UNL1       -0.2026
      9 O          63.8342   85.0555    8.9381 O.2     1  UNL1       -0.2864
     10 C          62.8241   85.1278   10.0445 C.2     1  UNL1        0.2015
     11 C          62.7826   84.0563   11.0935 C.ar    1  UNL1        0.0612
     12 C          62.3803   82.6273   10.8787 C.ar    1  UNL1        0.1037
     13 N          62.4851   81.9136   12.1938 N.ar    1  UNL1       -0.2269
     14 C          62.9522   82.9015   13.2214 C.ar    1  UNL1        0.1407
     15 N          63.2339   82.7662   14.6885 N.ar    1  UNL1       -0.3367
     16 C          63.6993   83.9553   15.4755 C.ar    1  UNL1        0.0850
     17 C          63.8832   85.2796   14.7954 C.ar    1  UNL1        0.0748
     18 CL         64.3487   86.4687   15.5825 Cl      1  UNL1       -0.0807
     19 C          63.6015   85.4148   13.3284 C.ar    1  UNL1        0.0160
     20 C          63.1360   84.2257   12.5413 C.ar    1  UNL1        0.0394
     21 H          63.1132   81.8971   15.1348 H       1  UNL1        0.1674
     22 N          61.2900   89.6239   12.1498 N.pl3   1  UNL1       -0.2128
     23 H          60.5761   89.8455   12.7906 H       1  UNL1        0.1738
     24 S          62.5792   90.3903   12.1686 S.O2    1  UNL1        0.0751
     25 O          62.8457   89.9078   13.5636 O.2     1  UNL1       -0.1499
     26 O          62.3126   90.8729   10.7736 O.2     1  UNL1       -0.1499
     27 C          63.8684   91.1569   12.1873 C.ar    1  UNL1        0.1442
     28 C          64.3605   91.8273   10.9389 C.ar    1  UNL1        0.0234
     29 C          65.6497   92.5938   10.9575 C.ar    1  UNL1        0.0221
     30 C          66.4468   92.6900   12.2246 C.ar    1  UNL1        0.0990
     31 N          65.9547   92.0196   13.4729 N.ar    1  UNL1       -0.2409
     32 C          64.6655   91.2531   13.4543 C.ar    1  UNL1        0.1190
@<TRIPOS>BOND
     1     9    10    2
     2    10     1    1
     3     1     2   ar
     4     2     3    1
     5     2     4   ar
     6     4     5   ar
     7     5     6   ar
     8     6    22    1
     9    22    24    1
    10    24    25    2
    11    24    26    2
    12    24    27    1
    13    27    28   ar
    14    28    29   ar
    15    29    30   ar
    16    30    31   ar
    17    31    32   ar
    18     6     7   ar
    19     7     8    1
    20    10    11    1
    21    11    12   ar
    22    12    13   ar
    23    13    14   ar
    24    14    15   ar
    25    15    16   ar
    26    16    17   ar
    27    17    18    1
    28    17    19   ar
    29    19    20   ar
    30     7     1   ar
    31    20    11   ar
    32    32    27   ar
    33    20    14    1
    34    22    23    1
    35    15    21    1
