@<TRIPOS>MOLECULE
*****
 30 33 0 0 0
SMALL
GASTEIGER

@<TRIPOS>ATOM
      1 N          63.3836   85.1580   14.3135 N.ar    1  UNL1       -0.1822
      2 C          63.0517   84.4552   15.5964 C.ar    1  UNL1        0.2143
      3 N          62.8146   82.9830   15.7594 N.pl3   1  UNL1       -0.3275
      4 N          62.9987   85.4829   16.6877 N.ar    1  UNL1       -0.2126
      5 C          63.2977   86.8210   16.0792 C.ar    1  UNL1        0.1017
      6 C          63.3841   88.1962   16.6717 C.ar    1  UNL1        0.0208
      7 C          63.7085   89.3707   15.7969 C.ar    1  UNL1        0.0029
      8 C          63.9464   89.1699   14.3296 C.ar    1  UNL1        0.0174
      9 C          63.8600   87.7947   13.7371 C.ar    1  UNL1        0.0218
     10 C          63.5356   86.6202   14.6119 C.ar    1  UNL1        0.1026
     11 H          62.8720   82.3858   14.9789 H       1  UNL1        0.1451
     12 H          62.6015   82.6140   16.6469 H       1  UNL1        0.1451
     13 C          64.2707   90.3445   13.4547 C.2     1  UNL1        0.0872
     14 N          65.3169   91.3844   13.7270 N.2     1  UNL1       -0.2264
     15 C          65.2986   92.3679   12.5946 C.2     1  UNL1        0.1945
     16 N          64.2411   91.9359   11.6225 N.2     1  UNL1       -0.2415
     17 C          63.6058   90.6854   12.1541 C.3     1  UNL1        0.1669
     18 C          62.4998   89.9116   11.4998 C.ar    1  UNL1        0.0057
     19 C          62.7914   89.0488   10.3079 C.ar    1  UNL1        0.0003
     20 C          61.6855   88.2750    9.6536 C.ar    1  UNL1        0.0294
     21 C          60.2879   88.3639   10.1912 C.ar    1  UNL1        0.1401
     22 F          59.1819   87.5902    9.5370 F       1  UNL1       -0.2042
     23 C          59.9964   89.2267   11.3832 C.ar    1  UNL1        0.0294
     24 C          61.1024   90.0005   12.0374 C.ar    1  UNL1        0.0003
     25 S          63.5366   84.5122   12.9683 S.O2    1  UNL1        0.0667
     26 O          62.3010   85.2155   12.4901 O.2     1  UNL1       -0.1521
     27 O          64.7721   83.8089   13.4465 O.2     1  UNL1       -0.1521
     28 C          64.4606   82.5868   11.4887 C.3     1  UNL1        0.0275
     29 C          63.6895   83.8663   11.6231 C.3     1  UNL1        0.1516
     30 C          63.0712   84.5001   10.4123 C.3     1  UNL1        0.0275
@<TRIPOS>BOND
     1    28    29    1
     2    29    30    1
     3    29    25    1
     4    25    26    2
     5    25    27    2
     6    25     1    1
     7     1     2   ar
     8     2     3    1
     9     2     4   ar
    10     4     5   ar
    11     5     6   ar
    12     6     7   ar
    13     7     8   ar
    14     8    13    1
    15    13    14    2
    16    14    15    1
    17    15    16    2
    18    16    17    1
    19    17    18    1
    20    18    19   ar
    21    19    20   ar
    22    20    21   ar
    23    21    22    1
    24    21    23   ar
    25    23    24   ar
    26     8     9   ar
    27     9    10   ar
    28    10     1   ar
    29    10     5   ar
    30    17    13    1
    31    24    18   ar
    32     3    11    1
    33     3    12    1
@<TRIPOS>MOLECULE
*****
 30 33 0 0 0
SMALL
GASTEIGER

@<TRIPOS>ATOM
      1 N          62.8067   84.8752   11.9113 N.ar    1  UNL1       -0.1822
      2 C          62.7736   83.5224   12.5585 C.ar    1  UNL1        0.2143
      3 N          62.3306   82.2449   11.9090 N.pl3   1  UNL1       -0.3275
      4 N          63.2612   83.6715   13.9691 N.ar    1  UNL1       -0.2126
      5 C          63.5957   85.1163   14.1938 C.ar    1  UNL1        0.1017
      6 C          64.1198   85.8506   15.3921 C.ar    1  UNL1        0.0208
      7 C          64.3629   87.3289   15.3186 C.ar    1  UNL1        0.0029
      8 C          64.0820   88.0729   14.0468 C.ar    1  UNL1        0.0174
      9 C          63.5579   87.3386   12.8485 C.ar    1  UNL1        0.0218
     10 C          63.3148   85.8603   12.9219 C.ar    1  UNL1        0.1026
     11 H          62.0255   82.2486   10.9730 H       1  UNL1        0.1451
     12 H          62.3449   81.4028   12.4188 H       1  UNL1        0.1451
     13 C          64.3252   89.5513   13.9733 C.2     1  UNL1        0.0872
     14 N          65.2891   90.3294   14.8192 N.2     1  UNL1       -0.2264
     15 C          65.2068   91.7701   14.4098 C.2     1  UNL1        0.1945
     16 N          64.1920   91.8824   13.3109 N.2     1  UNL1       -0.2415
     17 C          63.6471   90.5111   13.0412 C.3     1  UNL1        0.1669
     18 C          62.6069   90.1612   12.0188 C.ar    1  UNL1        0.0057
     19 C          61.1837   89.9446   12.4406 C.ar    1  UNL1        0.0003
     20 C          60.1435   89.5946   11.4182 C.ar    1  UNL1        0.0294
     21 C          60.5262   89.4613    9.9739 C.ar    1  UNL1        0.1401
     22 F          59.4859   89.1114    8.9515 F       1  UNL1       -0.2042
     23 C          61.9493   89.6780    9.5522 C.ar    1  UNL1        0.0294
     24 C          62.9895   90.0279   10.5746 C.ar    1  UNL1        0.0003
     25 S          62.4026   85.1881   10.5010 S.O2    1  UNL1        0.0667
     26 O          63.5124   84.3179    9.9900 O.2     1  UNL1       -0.1521
     27 O          61.2928   86.0581   11.0120 O.2     1  UNL1       -0.1521
     28 C          62.9315   85.1926    7.9573 C.3     1  UNL1        0.0275
     29 C          61.9986   85.5009    9.0907 C.3     1  UNL1        0.1516
     30 C          60.6615   86.1219    8.8138 C.3     1  UNL1        0.0275
@<TRIPOS>BOND
     1    28    29    1
     2    29    30    1
     3    29    25    1
     4    25    26    2
     5    25    27    2
     6    25     1    1
     7     1     2   ar
     8     2     3    1
     9     2     4   ar
    10     4     5   ar
    11     5     6   ar
    12     6     7   ar
    13     7     8   ar
    14     8    13    1
    15    13    14    2
    16    14    15    1
    17    15    16    2
    18    16    17    1
    19    17    18    1
    20    18    19   ar
    21    19    20   ar
    22    20    21   ar
    23    21    22    1
    24    21    23   ar
    25    23    24   ar
    26     8     9   ar
    27     9    10   ar
    28    10     1   ar
    29    10     5   ar
    30    17    13    1
    31    24    18   ar
    32     3    11    1
    33     3    12    1
@<TRIPOS>MOLECULE
*****
 30 33 0 0 0
SMALL
GASTEIGER

@<TRIPOS>ATOM
      1 N          61.8698   86.5942   10.0585 N.ar    1  UNL1       -0.1822
      2 C          61.0758   86.7718    8.7983 C.ar    1  UNL1        0.2143
      3 N          60.7629   85.7014    7.7951 N.pl3   1  UNL1       -0.3275
      4 N          60.6496   88.2077    8.7175 N.ar    1  UNL1       -0.2126
      5 C          61.1802   88.9176    9.9277 C.ar    1  UNL1        0.1017
      6 C          61.0741   90.3431   10.3821 C.ar    1  UNL1        0.0208
      7 C          61.7221   90.7714   11.6653 C.ar    1  UNL1        0.0029
      8 C          62.4762   89.7742   12.4940 C.ar    1  UNL1        0.0174
      9 C          62.5823   88.3487   12.0397 C.ar    1  UNL1        0.0218
     10 C          61.9343   87.9204   10.7565 C.ar    1  UNL1        0.1026
     11 H          61.0889   84.7834    7.9369 H       1  UNL1        0.1451
     12 H          60.2316   85.9170    6.9948 H       1  UNL1        0.1451
     13 C          63.1242   90.2026   13.7773 C.2     1  UNL1        0.0872
     14 N          62.6704   89.8366   15.1593 N.2     1  UNL1       -0.2264
     15 C          63.6054   90.4800   16.1400 C.2     1  UNL1        0.1945
     16 N          64.6373   91.2437   15.3639 N.2     1  UNL1       -0.2415
     17 C          64.3398   91.0723   13.9037 C.3     1  UNL1        0.1669
     18 C          65.1209   91.6663   12.7692 C.ar    1  UNL1        0.0057
     19 C          64.4408   91.9654   11.4661 C.ar    1  UNL1        0.0003
     20 C          65.2219   92.5594   10.3316 C.ar    1  UNL1        0.0294
     21 C          66.6830   92.8542   10.5001 C.ar    1  UNL1        0.1401
     22 F          67.4640   93.4482    9.3656 F       1  UNL1       -0.2042
     23 C          67.3629   92.5551   11.8032 C.ar    1  UNL1        0.0294
     24 C          66.5819   91.9611   12.9377 C.ar    1  UNL1        0.0003
     25 S          62.4903   85.3151   10.5367 S.O2    1  UNL1        0.0667
     26 O          63.1880   85.1605    9.2178 O.2     1  UNL1       -0.1521
     27 O          61.7927   85.4696   11.8555 O.2     1  UNL1       -0.1521
     28 C          62.8273   83.5367   12.4006 C.3     1  UNL1        0.0275
     29 C          63.1110   84.0359   11.0148 C.3     1  UNL1        0.1516
     30 C          64.0153   83.2559   10.1072 C.3     1  UNL1        0.0275
@<TRIPOS>BOND
     1    28    29    1
     2    29    30    1
     3    29    25    1
     4    25    26    2
     5    25    27    2
     6    25     1    1
     7     1     2   ar
     8     2     3    1
     9     2     4   ar
    10     4     5   ar
    11     5     6   ar
    12     6     7   ar
    13     7     8   ar
    14     8    13    1
    15    13    14    2
    16    14    15    1
    17    15    16    2
    18    16    17    1
    19    17    18    1
    20    18    19   ar
    21    19    20   ar
    22    20    21   ar
    23    21    22    1
    24    21    23   ar
    25    23    24   ar
    26     8     9   ar
    27     9    10   ar
    28    10     1   ar
    29    10     5   ar
    30    17    13    1
    31    24    18   ar
    32     3    11    1
    33     3    12    1
@<TRIPOS>MOLECULE
*****
 30 33 0 0 0
SMALL
GASTEIGER

@<TRIPOS>ATOM
      1 N          65.9623   92.3865   12.4864 N.ar    1  UNL1       -0.1822
      2 C          66.3873   92.7074   13.8886 C.ar    1  UNL1        0.2143
      3 N          67.5478   93.5725   14.2821 N.pl3   1  UNL1       -0.3275
      4 N          65.4480   92.0112   14.8284 N.ar    1  UNL1       -0.2126
      5 C          64.4425   91.2601   14.0069 C.ar    1  UNL1        0.1017
      6 C          63.2786   90.3950   14.3900 C.ar    1  UNL1        0.0208
      7 C          62.4325   89.7617   13.3255 C.ar    1  UNL1        0.0029
      8 C          62.7503   89.9937   11.8780 C.ar    1  UNL1        0.0174
      9 C          63.9142   90.8588   11.4950 C.ar    1  UNL1        0.0218
     10 C          64.7603   91.4920   12.5595 C.ar    1  UNL1        0.1026
     11 H          68.1093   93.9882   13.5884 H       1  UNL1        0.1451
     12 H          67.7480   93.7246   15.2339 H       1  UNL1        0.1451
     13 C          61.9042   89.3604   10.8136 C.2     1  UNL1        0.0872
     14 N          61.0929   90.0882    9.7830 N.2     1  UNL1       -0.2264
     15 C          60.4080   89.0658    8.9253 C.2     1  UNL1        0.1945
     16 N          60.7961   87.7060    9.4258 N.2     1  UNL1       -0.2415
     17 C          61.7207   87.8881   10.5928 C.3     1  UNL1        0.1669
     18 C          62.3512   86.7906   11.3977 C.ar    1  UNL1        0.0057
     19 C          63.1823   87.1253   12.6008 C.ar    1  UNL1        0.0003
     20 C          63.8128   86.0278   13.4056 C.ar    1  UNL1        0.0294
     21 C          63.6123   84.5955   13.0075 C.ar    1  UNL1        0.1401
     22 F          64.2428   83.4979   13.8124 F       1  UNL1       -0.2042
     23 C          62.7813   84.2608   11.8045 C.ar    1  UNL1        0.0294
     24 C          62.1508   85.3584   10.9996 C.ar    1  UNL1        0.0003
     25 S          66.6231   92.8744   11.2313 S.O2    1  UNL1        0.0667
     26 O          65.3680   93.6041   10.8541 O.2     1  UNL1       -0.1521
     27 O          67.8782   92.1447   11.6084 O.2     1  UNL1       -0.1521
     28 C          68.3320   92.5245    9.3058 C.3     1  UNL1        0.0275
     29 C          67.2839   93.3624    9.9761 C.3     1  UNL1        0.1516
     30 C          66.8965   94.6882    9.3914 C.3     1  UNL1        0.0275
@<TRIPOS>BOND
     1    28    29    1
     2    29    30    1
     3    29    25    1
     4    25    26    2
     5    25    27    2
     6    25     1    1
     7     1     2   ar
     8     2     3    1
     9     2     4   ar
    10     4     5   ar
    11     5     6   ar
    12     6     7   ar
    13     7     8   ar
    14     8    13    1
    15    13    14    2
    16    14    15    1
    17    15    16    2
    18    16    17    1
    19    17    18    1
    20    18    19   ar
    21    19    20   ar
    22    20    21   ar
    23    21    22    1
    24    21    23   ar
    25    23    24   ar
    26     8     9   ar
    27     9    10   ar
    28    10     1   ar
    29    10     5   ar
    30    17    13    1
    31    24    18   ar
    32     3    11    1
    33     3    12    1
@<TRIPOS>MOLECULE
*****
 30 33 0 0 0
SMALL
GASTEIGER

@<TRIPOS>ATOM
      1 N          63.5354   85.5620   14.3340 N.ar    1  UNL1       -0.1822
      2 C          63.3530   85.0509   15.7323 C.ar    1  UNL1        0.2143
      3 N          63.2049   83.6130   16.1332 N.pl3   1  UNL1       -0.3275
      4 N          63.3446   86.2300   16.6594 N.ar    1  UNL1       -0.2126
      5 C          63.5219   87.4699   15.8341 C.ar    1  UNL1        0.1017
      6 C          63.5911   88.9215   16.2055 C.ar    1  UNL1        0.0208
      7 C          63.7783   89.9603   15.1397 C.ar    1  UNL1        0.0029
      8 C          63.8962   89.5474   13.7025 C.ar    1  UNL1        0.0174
      9 C          63.8269   88.0958   13.3310 C.ar    1  UNL1        0.0218
     10 C          63.6398   87.0571   14.3968 C.ar    1  UNL1        0.1026
     11 H          63.2233   82.9065   15.4478 H       1  UNL1        0.1451
     12 H          63.0893   83.3759   17.0817 H       1  UNL1        0.1451
     13 C          64.0834   90.5863   12.6367 C.2     1  UNL1        0.0872
     14 N          63.2610   90.7288   11.3904 N.2     1  UNL1       -0.2264
     15 C          63.7951   91.8955   10.6135 C.2     1  UNL1        0.1945
     16 N          64.9476   92.4740   11.3797 N.2     1  UNL1       -0.2415
     17 C          65.1258   91.6648   12.6301 C.3     1  UNL1        0.1669
     18 C          66.1641   91.8940   13.6881 C.ar    1  UNL1        0.0057
     19 C          67.6173   91.7096   13.3652 C.ar    1  UNL1        0.0003
     20 C          68.6556   91.9388   14.4232 C.ar    1  UNL1        0.0294
     21 C          68.2408   92.3524   15.8041 C.ar    1  UNL1        0.1401
     22 F          69.2790   92.5816   16.8622 F       1  UNL1       -0.2042
     23 C          66.7876   92.5368   16.1270 C.ar    1  UNL1        0.0294
     24 C          65.7493   92.3076   15.0690 C.ar    1  UNL1        0.0003
     25 S          63.6017   84.7251   13.0909 S.O2    1  UNL1        0.0667
     26 O          64.9084   84.1483   13.5490 O.2     1  UNL1       -0.1521
     27 O          62.2951   85.3018   12.6328 O.2     1  UNL1       -0.1521
     28 C          62.9278   84.3155   10.6154 C.3     1  UNL1        0.0275
     29 C          63.6682   83.8881   11.8479 C.3     1  UNL1        0.1516
     30 C          64.4751   82.6237   11.8375 C.3     1  UNL1        0.0275
@<TRIPOS>BOND
     1    28    29    1
     2    29    30    1
     3    29    25    1
     4    25    26    2
     5    25    27    2
     6    25     1    1
     7     1     2   ar
     8     2     3    1
     9     2     4   ar
    10     4     5   ar
    11     5     6   ar
    12     6     7   ar
    13     7     8   ar
    14     8    13    1
    15    13    14    2
    16    14    15    1
    17    15    16    2
    18    16    17    1
    19    17    18    1
    20    18    19   ar
    21    19    20   ar
    22    20    21   ar
    23    21    22    1
    24    21    23   ar
    25    23    24   ar
    26     8     9   ar
    27     9    10   ar
    28    10     1   ar
    29    10     5   ar
    30    17    13    1
    31    24    18   ar
    32     3    11    1
    33     3    12    1
@<TRIPOS>MOLECULE
*****
 30 33 0 0 0
SMALL
GASTEIGER

@<TRIPOS>ATOM
      1 N          61.7259   86.9313   10.5719 N.ar    1  UNL1       -0.1822
      2 C          60.5116   87.0612    9.7008 C.ar    1  UNL1        0.2143
      3 N          59.7941   85.9365    9.0150 N.pl3   1  UNL1       -0.3275
      4 N          60.1408   88.5132    9.6361 N.ar    1  UNL1       -0.2126
      5 C          61.1258   89.2807   10.4672 C.ar    1  UNL1        0.1017
      6 C          61.2573   90.7434   10.7720 C.ar    1  UNL1        0.0208
      7 C          62.3685   91.2286   11.6551 C.ar    1  UNL1        0.0029
      8 C          63.3481   90.2509   12.2334 C.ar    1  UNL1        0.0174
      9 C          63.2166   88.7881   11.9286 C.ar    1  UNL1        0.0218
     10 C          62.1055   88.3030   11.0455 C.ar    1  UNL1        0.1026
     11 H          60.1155   85.0118    9.1186 H       1  UNL1        0.1451
     12 H          59.0018   86.1232    8.4612 H       1  UNL1        0.1451
     13 C          64.4593   90.7361   13.1166 C.2     1  UNL1        0.0872
     14 N          65.3541   91.9088   12.8441 N.2     1  UNL1       -0.2264
     15 C          66.3186   92.0312   13.9864 C.2     1  UNL1        0.1945
     16 N          66.0199   90.9342   14.9648 N.2     1  UNL1       -0.2415
     17 C          64.8709   90.1337   14.4273 C.3     1  UNL1        0.1669
     18 C          64.2435   88.9405   15.0849 C.ar    1  UNL1        0.0057
     19 C          63.3080   89.1276   16.2425 C.ar    1  UNL1        0.0003
     20 C          62.6806   87.9343   16.9002 C.ar    1  UNL1        0.0294
     21 C          62.9887   86.5540   16.4004 C.ar    1  UNL1        0.1401
     22 F          62.3614   85.3607   17.0580 F       1  UNL1       -0.2042
     23 C          63.9242   86.3669   15.2428 C.ar    1  UNL1        0.0294
     24 C          64.5516   87.5602   14.5852 C.ar    1  UNL1        0.0003
     25 S          62.4359   85.6540   10.9099 S.O2    1  UNL1        0.0667
     26 O          62.0241   85.8048   12.3444 O.2     1  UNL1       -0.1521
     27 O          62.8476   85.5032    9.4756 O.2     1  UNL1       -0.1521
     28 C          63.1517   83.8731   12.6611 C.3     1  UNL1        0.0275
     29 C          63.1459   84.3766   11.2481 C.3     1  UNL1        0.1516
     30 C          63.8500   83.6028   10.1733 C.3     1  UNL1        0.0275
@<TRIPOS>BOND
     1    28    29    1
     2    29    30    1
     3    29    25    1
     4    25    26    2
     5    25    27    2
     6    25     1    1
     7     1     2   ar
     8     2     3    1
     9     2     4   ar
    10     4     5   ar
    11     5     6   ar
    12     6     7   ar
    13     7     8   ar
    14     8    13    1
    15    13    14    2
    16    14    15    1
    17    15    16    2
    18    16    17    1
    19    17    18    1
    20    18    19   ar
    21    19    20   ar
    22    20    21   ar
    23    21    22    1
    24    21    23   ar
    25    23    24   ar
    26     8     9   ar
    27     9    10   ar
    28    10     1   ar
    29    10     5   ar
    30    17    13    1
    31    24    18   ar
    32     3    11    1
    33     3    12    1
@<TRIPOS>MOLECULE
*****
 30 33 0 0 0
SMALL
GASTEIGER

@<TRIPOS>ATOM
      1 N          63.6476   89.2889   14.5539 N.ar    1  UNL1       -0.1822
      2 C          63.4897   89.7850   15.9606 C.ar    1  UNL1        0.2143
      3 N          63.4481   91.2217   16.3895 N.pl3   1  UNL1       -0.3275
      4 N          63.3808   88.5919   16.8633 N.ar    1  UNL1       -0.2126
      5 C          63.4714   87.3585   16.0144 C.ar    1  UNL1        0.1017
      6 C          63.4250   85.8989   16.3567 C.ar    1  UNL1        0.0208
      7 C          63.5435   84.8700   15.2717 C.ar    1  UNL1        0.0029
      8 C          63.7083   85.3008   13.8443 C.ar    1  UNL1        0.0174
      9 C          63.7547   86.7604   13.5020 C.ar    1  UNL1        0.0218
     10 C          63.6362   87.7893   14.5871 C.ar    1  UNL1        0.1026
     11 H          63.5282   91.9381   15.7189 H       1  UNL1        0.1451
     12 H          63.3407   91.4484   17.3415 H       1  UNL1        0.1451
     13 C          63.8268   84.2718   12.7593 C.2     1  UNL1        0.0872
     14 N          64.5542   82.9639   12.8602 N.2     1  UNL1       -0.2264
     15 C          64.4157   82.2538   11.5462 C.2     1  UNL1        0.1945
     16 N          63.6026   83.1230   10.6331 N.2     1  UNL1       -0.2415
     17 C          63.2387   84.3702   11.3829 C.3     1  UNL1        0.1669
     18 C          62.4289   85.5147   10.8498 C.ar    1  UNL1        0.0057
     19 C          61.3910   86.1662   11.7150 C.ar    1  UNL1        0.0003
     20 C          60.5812   87.3107   11.1819 C.ar    1  UNL1        0.0294
     21 C          60.8092   87.8038    9.7837 C.ar    1  UNL1        0.1401
     22 F          59.9993   88.9484    9.2506 F       1  UNL1       -0.2042
     23 C          61.8470   87.1523    8.9186 C.ar    1  UNL1        0.0294
     24 C          62.6568   86.0078    9.4517 C.ar    1  UNL1        0.0003
     25 S          63.7915   90.1426   13.3289 S.O2    1  UNL1        0.0667
     26 O          65.1359   90.6039   13.8084 O.2     1  UNL1       -0.1521
     27 O          62.4472   89.6813   12.8494 O.2     1  UNL1       -0.1521
     28 C          63.0633   90.7472   10.9093 C.3     1  UNL1        0.0275
     29 C          63.9356   90.9963   12.1039 C.3     1  UNL1        0.1516
     30 C          64.9519   92.0991   12.0737 C.3     1  UNL1        0.0275
@<TRIPOS>BOND
     1    28    29    1
     2    29    30    1
     3    29    25    1
     4    25    26    2
     5    25    27    2
     6    25     1    1
     7     1     2   ar
     8     2     3    1
     9     2     4   ar
    10     4     5   ar
    11     5     6   ar
    12     6     7   ar
    13     7     8   ar
    14     8    13    1
    15    13    14    2
    16    14    15    1
    17    15    16    2
    18    16    17    1
    19    17    18    1
    20    18    19   ar
    21    19    20   ar
    22    20    21   ar
    23    21    22    1
    24    21    23   ar
    25    23    24   ar
    26     8     9   ar
    27     9    10   ar
    28    10     1   ar
    29    10     5   ar
    30    17    13    1
    31    24    18   ar
    32     3    11    1
    33     3    12    1
@<TRIPOS>MOLECULE
*****
 30 33 0 0 0
SMALL
GASTEIGER

@<TRIPOS>ATOM
      1 N          62.6666   87.2054   11.7017 N.ar    1  UNL1       -0.1822
      2 C          61.8267   87.0453   10.4693 C.ar    1  UNL1        0.2143
      3 N          61.2337   85.7623    9.9670 N.pl3   1  UNL1       -0.3275
      4 N          61.6839   88.3934    9.8274 N.ar    1  UNL1       -0.2126
      5 C          62.4356   89.3868   10.6630 C.ar    1  UNL1        0.1017
      6 C          62.6455   90.8650   10.5188 C.ar    1  UNL1        0.0208
      7 C          63.4627   91.6089   11.5330 C.ar    1  UNL1        0.0029
      8 C          64.0700   90.8746   12.6915 C.ar    1  UNL1        0.0174
      9 C          63.8601   89.3964   12.8357 C.ar    1  UNL1        0.0218
     10 C          63.0429   88.6525   11.8215 C.ar    1  UNL1        0.1026
     11 H          61.3843   84.9239   10.4606 H       1  UNL1        0.1451
     12 H          60.6939   85.7586    9.1437 H       1  UNL1        0.1451
     13 C          64.8873   91.6186   13.7057 C.2     1  UNL1        0.0872
     14 N          64.7651   91.4989   15.1959 N.2     1  UNL1       -0.2264
     15 C          65.7724   92.4192   15.8191 C.2     1  UNL1        0.1945
     16 N          66.5172   93.1078   14.7139 N.2     1  UNL1       -0.2415
     17 C          65.9701   92.6130   13.4078 C.3     1  UNL1        0.1669
     18 C          66.4258   93.0380   12.0434 C.ar    1  UNL1        0.0057
     19 C          67.2525   92.1081   11.2054 C.ar    1  UNL1        0.0003
     20 C          67.7083   92.5331    9.8410 C.ar    1  UNL1        0.0294
     21 C          67.3374   93.8878    9.3145 C.ar    1  UNL1        0.1401
     22 F          67.7932   94.3128    7.9500 F       1  UNL1       -0.2042
     23 C          66.5108   94.8176   10.1524 C.ar    1  UNL1        0.0294
     24 C          66.0550   94.3926   11.5168 C.ar    1  UNL1        0.0003
     25 S          63.0610   86.1106   12.6483 S.O2    1  UNL1        0.0667
     26 O          62.5146   85.0896   11.6949 O.2     1  UNL1       -0.1521
     27 O          63.6073   87.1317   13.6016 O.2     1  UNL1       -0.1521
     28 C          62.8559   83.6483   13.4514 C.3     1  UNL1        0.0275
     29 C          63.4553   85.0158   13.5948 C.3     1  UNL1        0.1516
     30 C          64.4491   85.2885   14.6847 C.3     1  UNL1        0.0275
@<TRIPOS>BOND
     1    28    29    1
     2    29    30    1
     3    29    25    1
     4    25    26    2
     5    25    27    2
     6    25     1    1
     7     1     2   ar
     8     2     3    1
     9     2     4   ar
    10     4     5   ar
    11     5     6   ar
    12     6     7   ar
    13     7     8   ar
    14     8    13    1
    15    13    14    2
    16    14    15    1
    17    15    16    2
    18    16    17    1
    19    17    18    1
    20    18    19   ar
    21    19    20   ar
    22    20    21   ar
    23    21    22    1
    24    21    23   ar
    25    23    24   ar
    26     8     9   ar
    27     9    10   ar
    28    10     1   ar
    29    10     5   ar
    30    17    13    1
    31    24    18   ar
    32     3    11    1
    33     3    12    1
@<TRIPOS>MOLECULE
*****
 30 33 0 0 0
SMALL
GASTEIGER

@<TRIPOS>ATOM
      1 N          61.7640   89.3592   11.8276 N.ar    1  UNL1       -0.1822
      2 C          60.6158   90.1188   11.2322 C.ar    1  UNL1        0.2143
      3 N          60.2503   91.5424   11.5319 N.pl3   1  UNL1       -0.3275
      4 N          59.8972   89.2048   10.2843 N.ar    1  UNL1       -0.2126
      5 C          60.6014   87.8804   10.2940 C.ar    1  UNL1        0.1017
      6 C          60.3410   86.5999    9.5575 C.ar    1  UNL1        0.0208
      7 C          61.2345   85.4148    9.7749 C.ar    1  UNL1        0.0029
      8 C          62.3882   85.5102   10.7287 C.ar    1  UNL1        0.0174
      9 C          62.6485   86.7907   11.4652 C.ar    1  UNL1        0.0218
     10 C          61.7551   87.9758   11.2478 C.ar    1  UNL1        0.1026
     11 H          60.7861   92.0638   12.1724 H       1  UNL1        0.1451
     12 H          59.4745   91.9553   11.0881 H       1  UNL1        0.1451
     13 C          63.2816   84.3250   10.9460 C.2     1  UNL1        0.0872
     14 N          63.7909   83.3979    9.8824 N.2     1  UNL1       -0.2264
     15 C          64.6466   82.3588   10.5440 C.2     1  UNL1        0.1945
     16 N          64.6663   82.6436   12.0166 N.2     1  UNL1       -0.2415
     17 C          63.8227   83.8588   12.2650 C.3     1  UNL1        0.1669
     18 C          63.5653   84.4958   13.5984 C.ar    1  UNL1        0.0057
     19 C          64.4421   85.6151   14.0765 C.ar    1  UNL1        0.0003
     20 C          64.1847   86.2522   15.4099 C.ar    1  UNL1        0.0294
     21 C          63.0506   85.7700   16.2652 C.ar    1  UNL1        0.1401
     22 F          62.7933   86.4071   17.5986 F       1  UNL1       -0.2042
     23 C          62.1739   84.6508   15.7871 C.ar    1  UNL1        0.0294
     24 C          62.4313   84.0137   14.4537 C.ar    1  UNL1        0.0003
     25 S          62.7484   89.8898   12.8274 S.O2    1  UNL1        0.0667
     26 O          61.7457   89.6841   13.9238 O.2     1  UNL1       -0.1521
     27 O          63.7510   90.0956   11.7310 O.2     1  UNL1       -0.1521
     28 C          63.6612   89.9768   15.2583 C.3     1  UNL1        0.0275
     29 C          63.7327   90.4204   13.8272 C.3     1  UNL1        0.1516
     30 C          64.7885   91.3947   13.3959 C.3     1  UNL1        0.0275
@<TRIPOS>BOND
     1    28    29    1
     2    29    30    1
     3    29    25    1
     4    25    26    2
     5    25    27    2
     6    25     1    1
     7     1     2   ar
     8     2     3    1
     9     2     4   ar
    10     4     5   ar
    11     5     6   ar
    12     6     7   ar
    13     7     8   ar
    14     8    13    1
    15    13    14    2
    16    14    15    1
    17    15    16    2
    18    16    17    1
    19    17    18    1
    20    18    19   ar
    21    19    20   ar
    22    20    21   ar
    23    21    22    1
    24    21    23   ar
    25    23    24   ar
    26     8     9   ar
    27     9    10   ar
    28    10     1   ar
    29    10     5   ar
    30    17    13    1
    31    24    18   ar
    32     3    11    1
    33     3    12    1
