@<TRIPOS>MOLECULE
*****
 45 49 0 0 0
SMALL
GASTEIGER

@<TRIPOS>ATOM
      1 N          60.9389   86.9980    8.7641 N.am    1  UNL1       -0.2541
      2 C          59.9726   86.6340    7.6762 C.2     1  UNL1        0.2456
      3 O          59.8999   85.2203    7.1797 O.2     1  UNL1       -0.2730
      4 C          59.0790   87.6835    7.0846 C.3     1  UNL1        0.1555
      5 N          59.1517   89.0971    7.5810 N.3     1  UNL1       -0.2883
      6 C          60.1180   89.4611    8.6690 C.3     1  UNL1        0.0932
      7 C          61.0116   88.4116    9.2605 C.3     1  UNL1        0.1390
      8 H          58.2208   89.3379    7.9213 H       1  UNL1        0.1237
      9 C          63.6198   83.8494   10.5388 C.ar    1  UNL1        0.1386
     10 C          62.6009   84.5379   11.3977 C.ar    1  UNL1        0.0382
     11 C          61.7073   85.5874   10.8061 C.ar    1  UNL1        0.0180
     12 C          61.8325   85.9485    9.3557 C.ar    1  UNL1        0.0542
     13 C          62.8514   85.2599    8.4967 C.ar    1  UNL1        0.0180
     14 C          63.7450   84.2104    9.0883 C.ar    1  UNL1        0.0382
     15 O          64.5134   82.7998   11.1303 O.3     1  UNL1       -0.4754
     16 C          63.9376   81.4877   11.5739 C.3     1  UNL1        0.2080
     17 C          62.4963   81.4001   11.9799 C.3     1  UNL1        0.0794
     18 C          62.1284   80.8498   13.3261 C.3     1  UNL1        0.1465
     19 O          62.7204   81.4476   14.5679 O.3     1  UNL1       -0.3488
     20 C          62.3661   82.8491   14.9681 C.3     1  UNL1        0.1716
     21 C          63.2080   85.1809   15.7450 C.ar    1  UNL1        0.1370
     22 C          64.2588   86.2514   15.7375 C.ar    1  UNL1        0.0367
     23 C          65.5183   86.0605   14.9457 C.ar    1  UNL1        0.0031
     24 C          65.7272   84.7991   14.1612 C.ar    1  UNL1       -0.0000
     25 C          64.6764   83.7286   14.1687 C.ar    1  UNL1        0.0012
     26 C          63.4168   83.9196   14.9606 C.ar    1  UNL1        0.0413
     27 C          61.8652   86.4638   17.5620 C.3     1  UNL1        0.2525
     28 O          61.9485   85.3719   16.5369 O.3     1  UNL1       -0.4717
     29 C          61.9780   88.7757   10.3485 C.3     1  UNL1        0.2267
     30 O          61.8626   90.1009   11.0416 O.3     1  UNL1       -0.4736
     31 C          63.0983   90.8830   11.3753 C.ar    1  UNL1        0.1401
     32 C          63.7056   91.7980   10.3536 C.ar    1  UNL1        0.0401
     33 C          64.9413   92.5799   10.6874 C.ar    1  UNL1        0.0413
     34 C          65.5698   92.4469   12.0429 C.ar    1  UNL1        0.1530
     35 C          64.9625   91.5319   13.0646 C.ar    1  UNL1        0.0914
     36 C          63.7268   90.7499   12.7308 C.ar    1  UNL1        0.0549
     37 N          65.5910   91.3989   14.4201 N.am    1  UNL1       -0.2473
     38 C          66.8267   92.1809   14.7538 C.2     1  UNL1        0.2743
     39 O          67.4552   92.0478   16.1093 O.2     1  UNL1       -0.2705
     40 C          67.4341   93.0959   13.7321 C.3     1  UNL1        0.2900
     41 O          66.8056   93.2289   12.3766 O.3     1  UNL1       -0.4643
     42 C          64.9838   90.4839   15.4418 C.3     1  UNL1        0.1399
     43 C          63.6458   90.8076   16.0376 C.2     1  UNL1        0.0708
     44 O          62.5224   89.8184   15.9406 O.co2   1  UNL1       -0.5474
     45 O          63.4312   92.1207   16.7304 O.co2   1  UNL1       -0.5474
@<TRIPOS>UNITY_ATOM_ATTR
44 1
charge -1
@<TRIPOS>BOND
     1    27    28    1
     2    28    21    1
     3    21    22   ar
     4    22    23   ar
     5    23    24   ar
     6    24    25   ar
     7    25    26   ar
     8    26    20    1
     9    20    19    1
    10    19    18    1
    11    18    17    1
    12    17    16    1
    13    16    15    1
    14    15     9    1
    15     9    10   ar
    16    10    11   ar
    17    11    12   ar
    18    12     1    1
    19     1     2   am
    20     2     3    2
    21     2     4    1
    22     4     5    1
    23     5     6    1
    24     6     7    1
    25     7    29    1
    26    29    30    1
    27    30    31    1
    28    31    32   ar
    29    32    33   ar
    30    33    34   ar
    31    34    35   ar
    32    35    36   ar
    33    35    37    1
    34    37    42    1
    35    42    43    1
    36    43    44   ar
    37    43    45   ar
    38    37    38   am
    39    38    39    2
    40    38    40    1
    41    40    41    1
    42    12    13   ar
    43    13    14   ar
    44    26    21   ar
    45    14     9   ar
    46     7     1    1
    47    36    31   ar
    48    41    34    1
    49     5     8    1
@<TRIPOS>MOLECULE
*****
 45 49 0 0 0
SMALL
GASTEIGER

@<TRIPOS>ATOM
      1 N          61.0608   87.3087    8.9216 N.am    1  UNL1       -0.2541
      2 C          59.9605   87.1028    7.9232 C.2     1  UNL1        0.2456
      3 O          59.6551   85.7241    7.4172 O.2     1  UNL1       -0.2730
      4 C          59.1655   88.2756    7.4307 C.3     1  UNL1        0.1555
      5 N          59.4709   89.6543    7.9367 N.3     1  UNL1       -0.2883
      6 C          60.5712   89.8601    8.9351 C.3     1  UNL1        0.0932
      7 C          61.3662   88.6873    9.4275 C.3     1  UNL1        0.1390
      8 H          58.6150   90.0071    8.3649 H       1  UNL1        0.1237
      9 C          63.4457   83.7902   10.3990 C.ar    1  UNL1        0.1386
     10 C          63.6158   84.2726    8.9890 C.ar    1  UNL1        0.0382
     11 C          62.8208   85.4455    8.4965 C.ar    1  UNL1        0.0180
     12 C          61.8558   86.1358    9.4141 C.ar    1  UNL1        0.0542
     13 C          61.6857   85.6534   10.8241 C.ar    1  UNL1        0.0180
     14 C          62.4807   84.4806   11.3166 C.ar    1  UNL1        0.0382
     15 O          64.2407   82.6174   10.8915 O.3     1  UNL1       -0.4754
     16 C          63.5516   81.3222   11.2038 C.3     1  UNL1        0.2080
     17 C          62.3805   81.3027   12.1409 C.3     1  UNL1        0.0794
     18 C          62.4686   80.5507   13.4358 C.3     1  UNL1        0.1465
     19 O          62.6205   81.2975   14.7278 O.3     1  UNL1       -0.3488
     20 C          62.2690   82.7540   14.7981 C.3     1  UNL1        0.1716
     21 C          63.1916   85.0339   15.6351 C.ar    1  UNL1        0.1370
     22 C          64.2782   86.0677   15.6535 C.ar    1  UNL1        0.0367
     23 C          65.5290   85.8555   14.8532 C.ar    1  UNL1        0.0031
     24 C          65.6931   84.6093   14.0345 C.ar    1  UNL1       -0.0000
     25 C          64.6065   83.5755   14.0161 C.ar    1  UNL1        0.0012
     26 C          63.3556   83.7878   14.8165 C.ar    1  UNL1        0.0413
     27 C          61.8989   86.3083   17.4939 C.3     1  UNL1        0.2525
     28 O          61.9407   85.2463   16.4354 O.3     1  UNL1       -0.4717
     29 C          62.4666   88.8932   10.4260 C.3     1  UNL1        0.2267
     30 O          62.1534   88.9187   11.8927 O.3     1  UNL1       -0.4736
     31 C          63.0426   89.6728   12.8365 C.ar    1  UNL1        0.1401
     32 C          63.1384   89.2534   14.2734 C.ar    1  UNL1        0.0401
     33 C          64.0275   90.0075   15.2171 C.ar    1  UNL1        0.0413
     34 C          64.8208   91.1811   14.7239 C.ar    1  UNL1        0.1530
     35 C          64.7251   91.6006   13.2870 C.ar    1  UNL1        0.0914
     36 C          63.8359   90.8464   12.3433 C.ar    1  UNL1        0.0549
     37 N          65.5184   92.7742   12.7938 N.am    1  UNL1       -0.2473
     38 C          66.4075   93.5283   13.7375 C.2     1  UNL1        0.2743
     39 O          67.2009   94.7019   13.2443 O.2     1  UNL1       -0.2705
     40 C          66.5034   93.1089   15.1746 C.3     1  UNL1        0.2900
     41 O          65.7100   91.9353   15.6678 O.3     1  UNL1       -0.4643
     42 C          65.4226   93.1936   11.3569 C.3     1  UNL1        0.1399
     43 C          66.6505   93.2049   10.4954 C.2     1  UNL1        0.0708
     44 O          66.7202   94.1090    9.3005 O.co2   1  UNL1       -0.5474
     45 O          67.8088   92.3120   10.8288 O.co2   1  UNL1       -0.5474
@<TRIPOS>UNITY_ATOM_ATTR
44 1
charge -1
@<TRIPOS>BOND
     1    27    28    1
     2    28    21    1
     3    21    22   ar
     4    22    23   ar
     5    23    24   ar
     6    24    25   ar
     7    25    26   ar
     8    26    20    1
     9    20    19    1
    10    19    18    1
    11    18    17    1
    12    17    16    1
    13    16    15    1
    14    15     9    1
    15     9    10   ar
    16    10    11   ar
    17    11    12   ar
    18    12     1    1
    19     1     2   am
    20     2     3    2
    21     2     4    1
    22     4     5    1
    23     5     6    1
    24     6     7    1
    25     7    29    1
    26    29    30    1
    27    30    31    1
    28    31    32   ar
    29    32    33   ar
    30    33    34   ar
    31    34    35   ar
    32    35    36   ar
    33    35    37    1
    34    37    42    1
    35    42    43    1
    36    43    44   ar
    37    43    45   ar
    38    37    38   am
    39    38    39    2
    40    38    40    1
    41    40    41    1
    42    12    13   ar
    43    13    14   ar
    44    26    21   ar
    45    14     9   ar
    46     7     1    1
    47    36    31   ar
    48    41    34    1
    49     5     8    1
@<TRIPOS>MOLECULE
*****
 45 49 0 0 0
SMALL
GASTEIGER

@<TRIPOS>ATOM
      1 N          61.0268   87.2491    8.9288 N.am    1  UNL1       -0.2541
      2 C          59.9700   86.9998    7.8940 C.2     1  UNL1        0.2456
      3 O          59.6976   85.6023    7.4217 O.2     1  UNL1       -0.2730
      4 C          59.1854   88.1478    7.3315 C.3     1  UNL1        0.1555
      5 N          59.4577   89.5452    7.8038 N.3     1  UNL1       -0.2883
      6 C          60.5145   89.7946    8.8385 C.3     1  UNL1        0.0932
      7 C          61.2991   88.6465    9.4011 C.3     1  UNL1        0.1390
      8 H          58.5819   89.9030    8.1851 H       1  UNL1        0.1237
      9 C          63.3806   83.8050   10.6164 C.ar    1  UNL1        0.1386
     10 C          63.5981   84.2381    9.1969 C.ar    1  UNL1        0.0382
     11 C          62.8136   85.3861    8.6344 C.ar    1  UNL1        0.0180
     12 C          61.8114   86.1011    9.4913 C.ar    1  UNL1        0.0542
     13 C          61.5938   85.6680   10.9108 C.ar    1  UNL1        0.0180
     14 C          62.3784   84.5199   11.4734 C.ar    1  UNL1        0.0382
     15 O          64.1651   82.6569   11.1789 O.3     1  UNL1       -0.4754
     16 C          63.4529   81.5134   11.8383 C.3     1  UNL1        0.2080
     17 C          63.4129   81.4174   13.3347 C.3     1  UNL1        0.0794
     18 C          62.1556   81.7651   14.0752 C.3     1  UNL1        0.1465
     19 O          61.9570   83.1544   14.6048 O.3     1  UNL1       -0.3488
     20 C          62.6778   83.5947   15.8443 C.3     1  UNL1        0.1716
     21 C          63.8282   85.8110   15.1270 C.ar    1  UNL1        0.1370
     22 C          64.1000   87.2678   15.3590 C.ar    1  UNL1        0.0367
     23 C          63.4933   87.9651   16.5403 C.ar    1  UNL1        0.0031
     24 C          62.6147   87.2057   17.4898 C.ar    1  UNL1       -0.0000
     25 C          62.3429   85.7489   17.2578 C.ar    1  UNL1        0.0012
     26 C          62.9496   85.0515   16.0763 C.ar    1  UNL1        0.0413
     27 C          65.6865   84.3043   14.1138 C.3     1  UNL1        0.2525
     28 O          64.4349   85.1137   13.9456 O.3     1  UNL1       -0.4717
     29 C          62.3560   88.8960   10.4359 C.3     1  UNL1        0.2267
     30 O          62.8629   90.2882   10.6698 O.3     1  UNL1       -0.4736
     31 C          63.4340   90.6640   12.0050 C.ar    1  UNL1        0.1401
     32 C          62.8417   90.0963   13.2607 C.ar    1  UNL1        0.0401
     33 C          63.4128   90.4722   14.5958 C.ar    1  UNL1        0.0413
     34 C          64.5761   91.4158   14.6752 C.ar    1  UNL1        0.1530
     35 C          65.1684   91.9835   13.4195 C.ar    1  UNL1        0.0914
     36 C          64.5973   91.6076   12.0844 C.ar    1  UNL1        0.0549
     37 N          66.3317   92.9271   13.4989 N.am    1  UNL1       -0.2473
     38 C          66.9028   93.3029   14.8340 C.2     1  UNL1        0.2743
     39 O          68.0661   94.2465   14.9134 O.2     1  UNL1       -0.2705
     40 C          66.3105   92.7352   16.0898 C.3     1  UNL1        0.2900
     41 O          65.1472   91.7917   16.0104 O.3     1  UNL1       -0.4643
     42 C          66.9240   93.4948   12.2431 C.3     1  UNL1        0.1399
     43 C          66.2800   94.6742   11.5767 C.2     1  UNL1        0.0708
     44 O          65.8325   94.5767   10.1484 O.co2   1  UNL1       -0.5474
     45 O          66.0836   95.9513   12.3387 O.co2   1  UNL1       -0.5474
@<TRIPOS>UNITY_ATOM_ATTR
44 1
charge -1
@<TRIPOS>BOND
     1    27    28    1
     2    28    21    1
     3    21    22   ar
     4    22    23   ar
     5    23    24   ar
     6    24    25   ar
     7    25    26   ar
     8    26    20    1
     9    20    19    1
    10    19    18    1
    11    18    17    1
    12    17    16    1
    13    16    15    1
    14    15     9    1
    15     9    10   ar
    16    10    11   ar
    17    11    12   ar
    18    12     1    1
    19     1     2   am
    20     2     3    2
    21     2     4    1
    22     4     5    1
    23     5     6    1
    24     6     7    1
    25     7    29    1
    26    29    30    1
    27    30    31    1
    28    31    32   ar
    29    32    33   ar
    30    33    34   ar
    31    34    35   ar
    32    35    36   ar
    33    35    37    1
    34    37    42    1
    35    42    43    1
    36    43    44   ar
    37    43    45   ar
    38    37    38   am
    39    38    39    2
    40    38    40    1
    41    40    41    1
    42    12    13   ar
    43    13    14   ar
    44    26    21   ar
    45    14     9   ar
    46     7     1    1
    47    36    31   ar
    48    41    34    1
    49     5     8    1
@<TRIPOS>MOLECULE
*****
 45 49 0 0 0
SMALL
GASTEIGER

@<TRIPOS>ATOM
      1 N          61.0284   87.1161    8.9722 N.am    1  UNL1       -0.2541
      2 C          60.1163   86.8638    7.8085 C.2     1  UNL1        0.2456
      3 O          59.9917   85.4816    7.2391 O.2     1  UNL1       -0.2730
      4 C          59.3287   87.9935    7.2140 C.3     1  UNL1        0.1555
      5 N          59.4532   89.3757    7.7833 N.3     1  UNL1       -0.2883
      6 C          60.3653   89.6280    8.9471 C.3     1  UNL1        0.0932
      7 C          61.1529   88.4983    9.5415 C.3     1  UNL1        0.1390
      8 H          58.5180   89.6592    8.0753 H       1  UNL1        0.1237
      9 C          63.3910   83.7268   10.7556 C.ar    1  UNL1        0.1386
     10 C          63.6087   84.1216    9.3249 C.ar    1  UNL1        0.0382
     11 C          62.8212   85.2513    8.7305 C.ar    1  UNL1        0.0180
     12 C          61.8159   85.9863    9.5667 C.ar    1  UNL1        0.0542
     13 C          61.5982   85.5916   10.9973 C.ar    1  UNL1        0.0180
     14 C          62.3858   84.4618   11.5917 C.ar    1  UNL1        0.0382
     15 O          64.1786   82.5970   11.3500 O.3     1  UNL1       -0.4754
     16 C          63.4744   81.3622   11.8286 C.3     1  UNL1        0.2080
     17 C          63.4116   81.0555   13.2956 C.3     1  UNL1        0.0794
     18 C          62.6648   81.9693   14.2216 C.3     1  UNL1        0.1465
     19 O          63.4170   82.8406   15.1833 O.3     1  UNL1       -0.3488
     20 C          62.6693   83.7228   16.1386 C.3     1  UNL1        0.1716
     21 C          63.8561   85.8163   15.1595 C.ar    1  UNL1        0.1370
     22 C          64.1579   87.2845   15.2174 C.ar    1  UNL1        0.0367
     23 C          63.5746   88.1274   16.3125 C.ar    1  UNL1        0.0031
     24 C          62.6895   87.5021   17.3497 C.ar    1  UNL1       -0.0000
     25 C          62.3878   86.0339   17.2917 C.ar    1  UNL1        0.0012
     26 C          62.9711   85.1910   16.1966 C.ar    1  UNL1        0.0413
     27 C          65.8760   84.5467   14.1306 C.3     1  UNL1        0.2525
     28 O          64.4395   84.9734   14.0643 O.3     1  UNL1       -0.4717
     29 C          62.0650   88.7507   10.7053 C.3     1  UNL1        0.2267
     30 O          61.9660   90.0369   11.4706 O.3     1  UNL1       -0.4736
     31 C          63.1772   90.9064   11.6360 C.ar    1  UNL1        0.1401
     32 C          63.6970   91.6976   10.4726 C.ar    1  UNL1        0.0401
     33 C          64.9081   92.5669   10.6381 C.ar    1  UNL1        0.0413
     34 C          65.5993   92.6451   11.9670 C.ar    1  UNL1        0.1530
     35 C          65.0795   91.8539   13.1305 C.ar    1  UNL1        0.0914
     36 C          63.8684   90.9845   12.9650 C.ar    1  UNL1        0.0549
     37 N          65.7707   91.9321   14.4594 N.am    1  UNL1       -0.2473
     38 C          66.9818   92.8014   14.6249 C.2     1  UNL1        0.2743
     39 O          67.6730   92.8796   15.9539 O.2     1  UNL1       -0.2705
     40 C          67.5017   93.5927   13.4614 C.3     1  UNL1        0.2900
     41 O          66.8105   93.5145   12.1325 O.3     1  UNL1       -0.4643
     42 C          65.2508   91.1409   15.6229 C.3     1  UNL1        0.1399
     43 C          64.2645   91.7586   16.5692 C.2     1  UNL1        0.0708
     44 O          64.6022   93.0386   17.2745 O.co2   1  UNL1       -0.5474
     45 O          62.9403   91.0963   16.8101 O.co2   1  UNL1       -0.5474
@<TRIPOS>UNITY_ATOM_ATTR
44 1
charge -1
@<TRIPOS>BOND
     1    27    28    1
     2    28    21    1
     3    21    22   ar
     4    22    23   ar
     5    23    24   ar
     6    24    25   ar
     7    25    26   ar
     8    26    20    1
     9    20    19    1
    10    19    18    1
    11    18    17    1
    12    17    16    1
    13    16    15    1
    14    15     9    1
    15     9    10   ar
    16    10    11   ar
    17    11    12   ar
    18    12     1    1
    19     1     2   am
    20     2     3    2
    21     2     4    1
    22     4     5    1
    23     5     6    1
    24     6     7    1
    25     7    29    1
    26    29    30    1
    27    30    31    1
    28    31    32   ar
    29    32    33   ar
    30    33    34   ar
    31    34    35   ar
    32    35    36   ar
    33    35    37    1
    34    37    42    1
    35    42    43    1
    36    43    44   ar
    37    43    45   ar
    38    37    38   am
    39    38    39    2
    40    38    40    1
    41    40    41    1
    42    12    13   ar
    43    13    14   ar
    44    26    21   ar
    45    14     9   ar
    46     7     1    1
    47    36    31   ar
    48    41    34    1
    49     5     8    1
@<TRIPOS>MOLECULE
*****
 45 49 0 0 0
SMALL
GASTEIGER

@<TRIPOS>ATOM
      1 N          63.4453   82.8702   12.6205 N.am    1  UNL1       -0.2541
      2 C          62.8594   81.7705   13.4554 C.2     1  UNL1        0.2456
      3 O          62.5679   82.0056   14.9080 O.2     1  UNL1       -0.2730
      4 C          62.5648   80.4356   12.8378 C.3     1  UNL1        0.1555
      5 N          62.8562   80.2005   11.3853 N.3     1  UNL1       -0.2883
      6 C          63.4421   81.3003   10.5504 C.3     1  UNL1        0.0932
      7 C          63.7367   82.6351   11.1680 C.3     1  UNL1        0.1390
      8 H          61.9739   79.9363   10.9470 H       1  UNL1        0.1237
      9 C          64.3291   86.8748   14.4732 C.ar    1  UNL1        0.1386
     10 C          65.0771   85.6567   14.9277 C.ar    1  UNL1        0.0382
     11 C          64.7825   84.3218   14.3101 C.ar    1  UNL1        0.0180
     12 C          63.7399   84.2051   13.2381 C.ar    1  UNL1        0.0542
     13 C          62.9919   85.4232   12.7836 C.ar    1  UNL1        0.0180
     14 C          63.2865   86.7581   13.4011 C.ar    1  UNL1        0.0382
     15 O          64.6237   88.2097   15.0908 O.3     1  UNL1       -0.4754
     16 C          64.4494   89.4633   14.2859 C.3     1  UNL1        0.2080
     17 C          64.7754   90.7957   14.8928 C.3     1  UNL1        0.0794
     18 C          65.7228   91.7261   14.1951 C.3     1  UNL1        0.1465
     19 O          65.2448   92.5567   13.0412 O.3     1  UNL1       -0.3488
     20 C          66.0647   93.7179   12.5624 C.3     1  UNL1        0.1716
     21 C          66.8458   94.8378   10.3521 C.ar    1  UNL1        0.1370
     22 C          67.5655   94.7569    9.0385 C.ar    1  UNL1        0.0367
     23 C          68.2237   93.4752    8.6216 C.ar    1  UNL1        0.0031
     24 C          68.1622   92.2742    9.5184 C.ar    1  UNL1       -0.0000
     25 C          67.4426   92.3552   10.8320 C.ar    1  UNL1        0.0012
     26 C          66.7844   93.6370   11.2488 C.ar    1  UNL1        0.0413
     27 C          65.0450   96.6709    9.9686 C.3     1  UNL1        0.2525
     28 O          66.1876   96.1197   10.7689 O.3     1  UNL1       -0.4717
     29 C          64.3227   83.7349   10.3330 C.3     1  UNL1        0.2267
     30 O          63.9247   83.8773    8.8938 O.3     1  UNL1       -0.4736
     31 C          62.8121   84.8081    8.5119 C.ar    1  UNL1        0.1401
     32 C          61.8796   84.4437    7.3949 C.ar    1  UNL1        0.0401
     33 C          60.7670   85.3745    7.0131 C.ar    1  UNL1        0.0413
     34 C          60.5870   86.6696    7.7481 C.ar    1  UNL1        0.1530
     35 C          61.5195   87.0339    8.8651 C.ar    1  UNL1        0.0914
     36 C          62.6321   86.1032    9.2469 C.ar    1  UNL1        0.0549
     37 N          61.3395   88.3290    9.6001 N.am    1  UNL1       -0.2473
     38 C          60.2269   89.2598    9.2182 C.2     1  UNL1        0.2743
     39 O          60.0469   90.5549    9.9533 O.2     1  UNL1       -0.2705
     40 C          59.2943   88.8955    8.1012 C.3     1  UNL1        0.2900
     41 O          59.4744   87.6004    7.3662 O.3     1  UNL1       -0.4643
     42 C          62.2720   88.6934   10.7171 C.3     1  UNL1        0.1399
     43 C          61.8717   89.7359   11.7184 C.2     1  UNL1        0.0708
     44 O          60.7628   89.4568   12.6892 O.co2   1  UNL1       -0.5474
     45 O          62.5802   91.0577   11.7490 O.co2   1  UNL1       -0.5474
@<TRIPOS>UNITY_ATOM_ATTR
44 1
charge -1
@<TRIPOS>BOND
     1    27    28    1
     2    28    21    1
     3    21    22   ar
     4    22    23   ar
     5    23    24   ar
     6    24    25   ar
     7    25    26   ar
     8    26    20    1
     9    20    19    1
    10    19    18    1
    11    18    17    1
    12    17    16    1
    13    16    15    1
    14    15     9    1
    15     9    10   ar
    16    10    11   ar
    17    11    12   ar
    18    12     1    1
    19     1     2   am
    20     2     3    2
    21     2     4    1
    22     4     5    1
    23     5     6    1
    24     6     7    1
    25     7    29    1
    26    29    30    1
    27    30    31    1
    28    31    32   ar
    29    32    33   ar
    30    33    34   ar
    31    34    35   ar
    32    35    36   ar
    33    35    37    1
    34    37    42    1
    35    42    43    1
    36    43    44   ar
    37    43    45   ar
    38    37    38   am
    39    38    39    2
    40    38    40    1
    41    40    41    1
    42    12    13   ar
    43    13    14   ar
    44    26    21   ar
    45    14     9   ar
    46     7     1    1
    47    36    31   ar
    48    41    34    1
    49     5     8    1
@<TRIPOS>MOLECULE
*****
 45 49 0 0 0
SMALL
GASTEIGER

@<TRIPOS>ATOM
      1 N          61.1983   87.5145    9.1146 N.am    1  UNL1       -0.2541
      2 C          59.7560   87.8020    8.8196 C.2     1  UNL1        0.2456
      3 O          59.0845   88.9887    9.4450 O.2     1  UNL1       -0.2730
      4 C          58.9850   86.9028    7.8992 C.3     1  UNL1        0.1555
      5 N          59.6563   85.7161    7.2739 N.3     1  UNL1       -0.2883
      6 C          61.0986   85.4287    7.5689 C.3     1  UNL1        0.0932
      7 C          61.8696   86.3279    8.4892 C.3     1  UNL1        0.1390
      8 H          59.5801   85.8333    6.2635 H       1  UNL1        0.1237
      9 C          63.5111   90.2121   11.8757 C.ar    1  UNL1        0.1386
     10 C          63.0916   90.7055   10.5227 C.ar    1  UNL1        0.0382
     11 C          62.3207   89.8063    9.6024 C.ar    1  UNL1        0.0180
     12 C          61.9692   88.4137   10.0350 C.ar    1  UNL1        0.0542
     13 C          62.3887   87.9204   11.3879 C.ar    1  UNL1        0.0180
     14 C          63.1597   88.8196   12.3083 C.ar    1  UNL1        0.0382
     15 O          64.2821   91.1113   12.7960 O.3     1  UNL1       -0.4754
     16 C          64.7983   90.5834   14.1017 C.3     1  UNL1        0.2080
     17 C          65.8202   91.3634   14.8746 C.3     1  UNL1        0.0794
     18 C          67.0436   91.8881   14.1832 C.3     1  UNL1        0.1465
     19 O          67.0850   93.3104   13.7087 O.3     1  UNL1       -0.3488
     20 C          66.2961   93.7214   12.5009 C.3     1  UNL1        0.1716
     21 C          66.9167   94.8918   10.2660 C.ar    1  UNL1        0.1370
     22 C          67.5478   94.8439    8.9060 C.ar    1  UNL1        0.0367
     23 C          68.1893   93.5778    8.4211 C.ar    1  UNL1        0.0031
     24 C          68.1998   92.3594    9.2961 C.ar    1  UNL1       -0.0000
     25 C          67.5687   92.4073   10.6560 C.ar    1  UNL1        0.0012
     26 C          66.9272   93.6735   11.1410 C.ar    1  UNL1        0.0413
     27 C          65.0585   96.6956   10.0577 C.3     1  UNL1        0.2525
     28 O          66.2752   96.1580   10.7509 O.3     1  UNL1       -0.4717
     29 C          63.3120   86.0404    8.7842 C.3     1  UNL1        0.2267
     30 O          63.8053   84.6240    8.8057 O.3     1  UNL1       -0.4736
     31 C          63.5457   83.7574   10.0022 C.ar    1  UNL1        0.1401
     32 C          63.4760   82.2670    9.8479 C.ar    1  UNL1        0.0401
     33 C          63.2164   81.4005   11.0444 C.ar    1  UNL1        0.0413
     34 C          63.0265   82.0244   12.3953 C.ar    1  UNL1        0.1530
     35 C          63.0962   83.5147   12.5496 C.ar    1  UNL1        0.0914
     36 C          63.3557   84.3813   11.3530 C.ar    1  UNL1        0.0549
     37 N          62.9062   84.1386   13.9004 N.am    1  UNL1       -0.2473
     38 C          62.6466   83.2721   15.0969 C.2     1  UNL1        0.2743
     39 O          62.4567   83.8960   16.4477 O.2     1  UNL1       -0.2705
     40 C          62.5770   81.7816   14.9427 C.3     1  UNL1        0.2900
     41 O          62.7669   81.1578   13.5918 O.3     1  UNL1       -0.4643
     42 C          62.9759   85.6290   14.0547 C.3     1  UNL1        0.1399
     43 C          64.1043   86.2516   14.8221 C.2     1  UNL1        0.0708
     44 O          63.8719   87.5048   15.6131 O.co2   1  UNL1       -0.5474
     45 O          65.4652   85.6211   14.7986 O.co2   1  UNL1       -0.5474
@<TRIPOS>UNITY_ATOM_ATTR
44 1
charge -1
@<TRIPOS>BOND
     1    27    28    1
     2    28    21    1
     3    21    22   ar
     4    22    23   ar
     5    23    24   ar
     6    24    25   ar
     7    25    26   ar
     8    26    20    1
     9    20    19    1
    10    19    18    1
    11    18    17    1
    12    17    16    1
    13    16    15    1
    14    15     9    1
    15     9    10   ar
    16    10    11   ar
    17    11    12   ar
    18    12     1    1
    19     1     2   am
    20     2     3    2
    21     2     4    1
    22     4     5    1
    23     5     6    1
    24     6     7    1
    25     7    29    1
    26    29    30    1
    27    30    31    1
    28    31    32   ar
    29    32    33   ar
    30    33    34   ar
    31    34    35   ar
    32    35    36   ar
    33    35    37    1
    34    37    42    1
    35    42    43    1
    36    43    44   ar
    37    43    45   ar
    38    37    38   am
    39    38    39    2
    40    38    40    1
    41    40    41    1
    42    12    13   ar
    43    13    14   ar
    44    26    21   ar
    45    14     9   ar
    46     7     1    1
    47    36    31   ar
    48    41    34    1
    49     5     8    1
@<TRIPOS>MOLECULE
*****
 45 49 0 0 0
SMALL
GASTEIGER

@<TRIPOS>ATOM
      1 N          63.1815   82.0555   12.8782 N.am    1  UNL1       -0.2541
      2 C          62.7377   80.6802   13.2803 C.2     1  UNL1        0.2456
      3 O          62.4123   80.3866   14.7149 O.2     1  UNL1       -0.2730
      4 C          62.6194   79.5985   12.2479 C.3     1  UNL1        0.1555
      5 N          62.9448   79.8921   10.8133 N.3     1  UNL1       -0.2883
      6 C          63.3885   81.2673   10.4112 C.3     1  UNL1        0.0932
      7 C          63.5069   82.3490   11.4437 C.3     1  UNL1        0.1390
      8 H          62.1055   79.6835   10.2724 H       1  UNL1        0.1237
      9 C          63.5366   85.3006   15.9754 C.ar    1  UNL1        0.1386
     10 C          64.7098   84.9646   15.1033 C.ar    1  UNL1        0.0382
     11 C          64.5914   83.8829   14.0709 C.ar    1  UNL1        0.0180
     12 C          63.2999   83.1372   13.9106 C.ar    1  UNL1        0.0542
     13 C          62.1267   83.4732   14.7828 C.ar    1  UNL1        0.0180
     14 C          62.2451   84.5549   15.8152 C.ar    1  UNL1        0.0382
     15 O          63.6550   86.3823   17.0079 O.3     1  UNL1       -0.4754
     16 C          62.8841   87.6591   16.8482 C.3     1  UNL1        0.2080
     17 C          63.4716   88.7973   16.0677 C.3     1  UNL1        0.0794
     18 C          63.3509   90.2011   16.5826 C.3     1  UNL1        0.1465
     19 O          63.6563   91.3598   15.6803 O.3     1  UNL1       -0.3488
     20 C          64.6456   92.4030   16.1080 C.3     1  UNL1        0.1716
     21 C          66.2802   92.3680   14.0889 C.ar    1  UNL1        0.1370
     22 C          67.6802   92.3391   13.5512 C.ar    1  UNL1        0.0367
     23 C          68.8457   92.3163   14.4951 C.ar    1  UNL1        0.0031
     24 C          68.6113   92.3224   15.9767 C.ar    1  UNL1       -0.0000
     25 C          67.2112   92.3513   16.5143 C.ar    1  UNL1        0.0012
     26 C          66.0457   92.3741   15.5704 C.ar    1  UNL1        0.0413
     27 C          65.3130   92.8093   11.7182 C.3     1  UNL1        0.2525
     28 O          65.1146   92.3908   13.1449 O.3     1  UNL1       -0.4717
     29 C          63.9507   83.7243   11.0415 C.3     1  UNL1        0.2267
     30 O          63.9716   84.1119    9.5926 O.3     1  UNL1       -0.4736
     31 C          62.9166   85.0275    9.0458 C.ar    1  UNL1        0.1401
     32 C          62.2663   84.7208    7.7294 C.ar    1  UNL1        0.0401
     33 C          61.2114   85.6363    7.1828 C.ar    1  UNL1        0.0413
     34 C          60.8068   86.8586    7.9525 C.ar    1  UNL1        0.1530
     35 C          61.4572   87.1653    9.2688 C.ar    1  UNL1        0.0914
     36 C          62.5121   86.2497    9.8155 C.ar    1  UNL1        0.0549
     37 N          61.0526   88.3875   10.0385 N.am    1  UNL1       -0.2473
     38 C          59.9977   89.3031    9.4919 C.2     1  UNL1        0.2743
     39 O          59.5932   90.5253   10.2616 O.2     1  UNL1       -0.2705
     40 C          59.3473   88.9964    8.1754 C.3     1  UNL1        0.2900
     41 O          59.7519   87.7742    7.4057 O.3     1  UNL1       -0.4643
     42 C          61.7030   88.6942   11.3549 C.3     1  UNL1        0.1399
     43 C          62.8442   89.6655   11.4194 C.2     1  UNL1        0.0708
     44 O          63.0339   90.6735   10.3250 O.co2   1  UNL1       -0.5474
     45 O          63.7957   89.6288   12.5785 O.co2   1  UNL1       -0.5474
@<TRIPOS>UNITY_ATOM_ATTR
44 1
charge -1
@<TRIPOS>BOND
     1    27    28    1
     2    28    21    1
     3    21    22   ar
     4    22    23   ar
     5    23    24   ar
     6    24    25   ar
     7    25    26   ar
     8    26    20    1
     9    20    19    1
    10    19    18    1
    11    18    17    1
    12    17    16    1
    13    16    15    1
    14    15     9    1
    15     9    10   ar
    16    10    11   ar
    17    11    12   ar
    18    12     1    1
    19     1     2   am
    20     2     3    2
    21     2     4    1
    22     4     5    1
    23     5     6    1
    24     6     7    1
    25     7    29    1
    26    29    30    1
    27    30    31    1
    28    31    32   ar
    29    32    33   ar
    30    33    34   ar
    31    34    35   ar
    32    35    36   ar
    33    35    37    1
    34    37    42    1
    35    42    43    1
    36    43    44   ar
    37    43    45   ar
    38    37    38   am
    39    38    39    2
    40    38    40    1
    41    40    41    1
    42    12    13   ar
    43    13    14   ar
    44    26    21   ar
    45    14     9   ar
    46     7     1    1
    47    36    31   ar
    48    41    34    1
    49     5     8    1
@<TRIPOS>MOLECULE
*****
 45 49 0 0 0
SMALL
GASTEIGER

@<TRIPOS>ATOM
      1 N          62.7808   86.1953   12.0616 N.am    1  UNL1       -0.2541
      2 C          62.9692   84.7694   12.4875 C.2     1  UNL1        0.2456
      3 O          62.3294   83.6618   11.7039 O.2     1  UNL1       -0.2730
      4 C          63.7975   84.4510   13.6969 C.3     1  UNL1        0.1555
      5 N          64.4373   85.5585   14.4805 N.3     1  UNL1       -0.2883
      6 C          64.2489   86.9844   14.0546 C.3     1  UNL1        0.0932
      7 C          63.4207   87.3028   12.8452 C.3     1  UNL1        0.1390
      8 H          65.4416   85.3802   14.4762 H       1  UNL1        0.1237
      9 C          60.2961   87.1504    8.4334 C.ar    1  UNL1        0.1386
     10 C          59.8673   87.6378    9.7856 C.ar    1  UNL1        0.0382
     11 C          60.6955   87.3194   10.9950 C.ar    1  UNL1        0.0180
     12 C          61.9526   86.5137   10.8522 C.ar    1  UNL1        0.0542
     13 C          62.3815   86.0263    9.5000 C.ar    1  UNL1        0.0180
     14 C          61.5532   86.3447    8.2906 C.ar    1  UNL1        0.0382
     15 O          59.4679   87.4688    7.2240 O.3     1  UNL1       -0.4754
     16 C          58.9022   88.8463    7.0439 C.3     1  UNL1        0.2080
     17 C          59.4920   89.7714    6.0210 C.3     1  UNL1        0.0794
     18 C          58.6540   90.8643    5.4265 C.3     1  UNL1        0.1465
     19 O          59.2868   92.1678    5.0384 O.3     1  UNL1       -0.3488
     20 C          59.4718   92.5098    3.5898 C.3     1  UNL1        0.1716
     21 C          61.1803   93.6034    1.9665 C.ar    1  UNL1        0.1370
     22 C          62.5598   93.6647    1.3806 C.ar    1  UNL1        0.0367
     23 C          63.6102   92.6937    1.8320 C.ar    1  UNL1        0.0031
     24 C          63.2812   91.6614    2.8694 C.ar    1  UNL1       -0.0000
     25 C          61.9017   91.6001    3.4553 C.ar    1  UNL1        0.0012
     26 C          60.8513   92.5711    3.0038 C.ar    1  UNL1        0.0413
     27 C          59.3288   94.2916    0.2789 C.3     1  UNL1        0.2525
     28 O          60.1299   94.5744    1.5151 O.3     1  UNL1       -0.4717
     29 C          63.2323   88.7287   12.4194 C.3     1  UNL1        0.2267
     30 O          62.7299   89.7447   13.4019 O.3     1  UNL1       -0.4736
     31 C          63.7001   90.5068   14.2551 C.ar    1  UNL1        0.1401
     32 C          63.3156   90.9152   15.6462 C.ar    1  UNL1        0.0401
     33 C          64.2858   91.6773   16.4993 C.ar    1  UNL1        0.0413
     34 C          65.6406   92.0309   15.9613 C.ar    1  UNL1        0.1530
     35 C          66.0252   91.6225   14.5702 C.ar    1  UNL1        0.0914
     36 C          65.0549   90.8604   13.7171 C.ar    1  UNL1        0.0549
     37 N          67.3800   91.9761   14.0321 N.am    1  UNL1       -0.2473
     38 C          68.3502   92.7382   14.8852 C.2     1  UNL1        0.2743
     39 O          69.7050   93.0918   14.3472 O.2     1  UNL1       -0.2705
     40 C          67.9657   93.1467   16.2764 C.3     1  UNL1        0.2900
     41 O          66.6109   92.7930   16.8145 O.3     1  UNL1       -0.4643
     42 C          67.7645   91.5677   12.6410 C.3     1  UNL1        0.1399
     43 C          67.4686   92.4754   11.4840 C.2     1  UNL1        0.0708
     44 O          66.9170   93.8484   11.7299 O.co2   1  UNL1       -0.5474
     45 O          67.7242   92.0099   10.0811 O.co2   1  UNL1       -0.5474
@<TRIPOS>UNITY_ATOM_ATTR
44 1
charge -1
@<TRIPOS>BOND
     1    27    28    1
     2    28    21    1
     3    21    22   ar
     4    22    23   ar
     5    23    24   ar
     6    24    25   ar
     7    25    26   ar
     8    26    20    1
     9    20    19    1
    10    19    18    1
    11    18    17    1
    12    17    16    1
    13    16    15    1
    14    15     9    1
    15     9    10   ar
    16    10    11   ar
    17    11    12   ar
    18    12     1    1
    19     1     2   am
    20     2     3    2
    21     2     4    1
    22     4     5    1
    23     5     6    1
    24     6     7    1
    25     7    29    1
    26    29    30    1
    27    30    31    1
    28    31    32   ar
    29    32    33   ar
    30    33    34   ar
    31    34    35   ar
    32    35    36   ar
    33    35    37    1
    34    37    42    1
    35    42    43    1
    36    43    44   ar
    37    43    45   ar
    38    37    38   am
    39    38    39    2
    40    38    40    1
    41    40    41    1
    42    12    13   ar
    43    13    14   ar
    44    26    21   ar
    45    14     9   ar
    46     7     1    1
    47    36    31   ar
    48    41    34    1
    49     5     8    1
@<TRIPOS>MOLECULE
*****
 45 49 0 0 0
SMALL
GASTEIGER

@<TRIPOS>ATOM
      1 N          63.1540   85.0131   11.7269 N.am    1  UNL1       -0.2541
      2 C          63.8060   83.6820   11.4968 C.2     1  UNL1        0.2456
      3 O          63.5883   82.9537   10.2036 O.2     1  UNL1       -0.2730
      4 C          64.6758   83.0791   12.5598 C.3     1  UNL1        0.1555
      5 N          64.8935   83.8073   13.8530 N.3     1  UNL1       -0.2883
      6 C          64.2414   85.1383   14.0831 C.3     1  UNL1        0.0932
      7 C          63.3717   85.7412   13.0201 C.3     1  UNL1        0.1390
      8 H          65.8990   83.9524   13.9435 H       1  UNL1        0.1237
      9 C          60.5447   86.8218    8.5378 C.ar    1  UNL1        0.1386
     10 C          61.7541   86.0222    8.1531 C.ar    1  UNL1        0.0382
     11 C          62.6238   85.4193    9.2162 C.ar    1  UNL1        0.0180
     12 C          62.2842   85.6160   10.6639 C.ar    1  UNL1        0.0542
     13 C          61.0749   86.4155   11.0486 C.ar    1  UNL1        0.0180
     14 C          60.2051   87.0185    9.9855 C.ar    1  UNL1        0.0382
     15 O          59.6750   87.4247    7.4748 O.3     1  UNL1       -0.4754
     16 C          59.5011   88.9128    7.4027 C.3     1  UNL1        0.2080
     17 C          59.5348   89.6084    6.0742 C.3     1  UNL1        0.0794
     18 C          58.5940   90.7437    5.7980 C.3     1  UNL1        0.1465
     19 O          58.5679   91.3829    4.4413 O.3     1  UNL1       -0.3488
     20 C          59.4260   92.5806    4.1599 C.3     1  UNL1        0.1716
     21 C          61.0756   93.2495    2.2674 C.ar    1  UNL1        0.1370
     22 C          62.3952   93.0806    1.5746 C.ar    1  UNL1        0.0367
     23 C          63.3849   92.0737    2.0812 C.ar    1  UNL1        0.0031
     24 C          63.0549   91.2357    3.2808 C.ar    1  UNL1       -0.0000
     25 C          61.7353   91.4047    3.9737 C.ar    1  UNL1        0.0012
     26 C          60.7456   92.4116    3.4670 C.ar    1  UNL1        0.0413
     27 C          60.2778   95.7135    2.0610 C.3     1  UNL1        0.2525
     28 O          60.0859   94.2565    1.7607 O.3     1  UNL1       -0.4717
     29 C          62.7196   87.0724   13.2503 C.3     1  UNL1        0.2267
     30 O          63.5367   88.2346   13.7314 O.3     1  UNL1       -0.4736
     31 C          63.7647   89.4142   12.8332 C.ar    1  UNL1        0.1401
     32 C          63.1281   89.4573   11.4757 C.ar    1  UNL1        0.0401
     33 C          63.3561   90.6368   10.5776 C.ar    1  UNL1        0.0413
     34 C          64.2207   91.7733   11.0370 C.ar    1  UNL1        0.1530
     35 C          64.8572   91.7302   12.3945 C.ar    1  UNL1        0.0914
     36 C          64.6293   90.5506   13.2926 C.ar    1  UNL1        0.0549
     37 N          65.7218   92.8666   12.8539 N.am    1  UNL1       -0.2473
     38 C          65.9498   94.0461   11.9557 C.2     1  UNL1        0.2743
     39 O          66.8143   95.1826   12.4151 O.2     1  UNL1       -0.2705
     40 C          65.3132   94.0893   10.5981 C.3     1  UNL1        0.2900
     41 O          64.4487   92.9528   10.1387 O.3     1  UNL1       -0.4643
     42 C          66.3584   92.8235   14.2114 C.3     1  UNL1        0.1399
     43 C          67.6911   92.1598   14.3941 C.2     1  UNL1        0.0708
     44 O          68.6283   92.0264   13.2306 O.co2   1  UNL1       -0.5474
     45 O          68.0865   91.6295   15.7404 O.co2   1  UNL1       -0.5474
@<TRIPOS>UNITY_ATOM_ATTR
44 1
charge -1
@<TRIPOS>BOND
     1    27    28    1
     2    28    21    1
     3    21    22   ar
     4    22    23   ar
     5    23    24   ar
     6    24    25   ar
     7    25    26   ar
     8    26    20    1
     9    20    19    1
    10    19    18    1
    11    18    17    1
    12    17    16    1
    13    16    15    1
    14    15     9    1
    15     9    10   ar
    16    10    11   ar
    17    11    12   ar
    18    12     1    1
    19     1     2   am
    20     2     3    2
    21     2     4    1
    22     4     5    1
    23     5     6    1
    24     6     7    1
    25     7    29    1
    26    29    30    1
    27    30    31    1
    28    31    32   ar
    29    32    33   ar
    30    33    34   ar
    31    34    35   ar
    32    35    36   ar
    33    35    37    1
    34    37    42    1
    35    42    43    1
    36    43    44   ar
    37    43    45   ar
    38    37    38   am
    39    38    39    2
    40    38    40    1
    41    40    41    1
    42    12    13   ar
    43    13    14   ar
    44    26    21   ar
    45    14     9   ar
    46     7     1    1
    47    36    31   ar
    48    41    34    1
    49     5     8    1
