@<TRIPOS>MOLECULE
*****
 33 37 0 0 0
SMALL
GASTEIGER

@<TRIPOS>ATOM
      1 C          62.7607   82.4639   10.9228 C.3     1  UNL1        0.0061
      2 C          63.0931   83.4252   12.0252 C.3     1  UNL1        0.0373
      3 C          63.2409   82.1255   12.7595 C.3     1  UNL1        0.0075
      4 C          63.6297   82.1226   14.2082 C.3     1  UNL1        0.0219
      5 C          63.8708   83.4193   14.9227 C.3     1  UNL1        0.0950
      6 N          63.7231   84.7190   14.1885 N.am    1  UNL1       -0.2639
      7 C          63.9642   86.0156   14.9030 C.2     1  UNL1        0.3042
      8 O          64.3530   86.0126   16.3517 O.2     1  UNL1       -0.2526
      9 N          63.8164   87.3153   14.1687 N.am    1  UNL1       -0.2847
     10 C          63.3342   84.7219   12.7397 C.3     1  UNL1        0.0989
     11 H          63.5613   87.3172   13.2179 H       1  UNL1        0.1513
     12 C          62.8300   84.3910   10.9082 C.ar    1  UNL1       -0.0212
     13 C          63.4205   84.1471    9.5510 C.ar    1  UNL1       -0.0042
     14 C          63.1573   85.1129    8.4339 C.ar    1  UNL1       -0.0003
     15 C          62.3035   86.3227    8.6740 C.ar    1  UNL1       -0.0000
     16 C          61.7130   86.5666   10.0311 C.ar    1  UNL1       -0.0003
     17 C          61.9762   85.6008   11.1482 C.ar    1  UNL1       -0.0042
     18 C          64.0576   88.6119   14.8832 C.3     1  UNL1        0.1177
     19 C          64.5206   89.8155   14.1172 C.ar    1  UNL1       -0.0025
     20 C          65.7198   90.5861   14.5843 C.ar    1  UNL1       -0.0026
     21 C          66.1829   91.7898   13.8181 C.ar    1  UNL1       -0.0006
     22 C          65.4468   92.2228   12.5851 C.ar    1  UNL1       -0.0037
     23 C          64.2476   91.4522   12.1180 C.ar    1  UNL1       -0.0006
     24 C          63.7845   90.2486   12.8840 C.ar    1  UNL1       -0.0026
     25 C          65.9099   93.4264   11.8189 C.2     1  UNL1       -0.0177
     26 C          65.9702   94.7658   12.4913 C.2     1  UNL1       -0.0024
     27 C          66.4333   95.9695   11.7252 C.2     1  UNL1        0.0185
     28 C          66.8360   95.8336   10.2866 C.2     1  UNL1        0.0777
     29 N          67.3300   96.8338    9.2839 N.2     1  UNL1       -0.2442
     30 C          67.5749   96.1124    7.9918 C.2     1  UNL1        0.0985
     31 C          67.2323   94.6664    8.1959 C.2     1  UNL1        0.0182
     32 C          66.7756   94.4940    9.6143 C.2     1  UNL1        0.0014
     33 C          66.3126   93.2905   10.3804 C.3     1  UNL1        0.0542
@<TRIPOS>BOND
     1     1     2    1
     2     2    12    1
     3    12    13   ar
     4    13    14   ar
     5    14    15   ar
     6    15    16   ar
     7    16    17   ar
     8     2     3    1
     9     3     4    1
    10     4     5    1
    11     5     6    1
    12     6     7   am
    13     7     8    2
    14     7     9   am
    15     9    18    1
    16    18    19    1
    17    19    20   ar
    18    20    21   ar
    19    21    22   ar
    20    22    25    1
    21    25    26    2
    22    26    27    1
    23    27    28    2
    24    28    29    1
    25    29    30    2
    26    30    31    1
    27    31    32    2
    28    32    33    1
    29    22    23   ar
    30    23    24   ar
    31     6    10    1
    32    10     2    1
    33    17    12   ar
    34    24    19   ar
    35    33    25    1
    36    32    28    1
    37     9    11    1
