@<TRIPOS>MOLECULE
*****
 29 31 0 0 0
SMALL
GASTEIGER

@<TRIPOS>ATOM
      1 N          63.0157   90.5218   11.7540 N.am    1  UNL1       -0.2438
      2 C          63.4352   91.3106   10.5491 C.3     1  UNL1        0.1009
      3 C          64.5334   92.3260   10.6624 C.3     1  UNL1        0.0662
      4 C          65.2121   92.5526   11.9807 C.3     1  UNL1        0.1600
      5 O          64.7926   91.7639   13.1857 O.3     1  UNL1       -0.4374
      6 C          63.6944   90.7485   13.0723 C.2     1  UNL1        0.4051
      7 O          63.2749   89.9597   14.2773 O.2     1  UNL1       -0.2262
      8 C          65.9572   93.5391   11.1311 C.ar    1  UNL1        0.0140
      9 C          65.9044   95.0019   11.4591 C.ar    1  UNL1        0.0014
     10 C          66.6495   95.9884   10.6095 C.ar    1  UNL1        0.0294
     11 C          67.4473   95.5120    9.4320 C.ar    1  UNL1        0.1401
     12 F          68.1925   96.4984    8.5824 F       1  UNL1       -0.2042
     13 C          67.5002   94.0492    9.1041 C.ar    1  UNL1        0.0294
     14 C          66.7551   93.0627    9.9537 C.ar    1  UNL1        0.0014
     15 C          60.5029   89.8931   11.9561 C.3     1  UNL1        0.0265
     16 C          61.9174   89.5064   11.6406 C.3     1  UNL1        0.1011
     17 C          62.2338   88.1042   11.2117 C.ar    1  UNL1       -0.0041
     18 C          62.6913   87.0956   12.2233 C.ar    1  UNL1       -0.0022
     19 C          63.0076   85.6936   11.7944 C.ar    1  UNL1        0.0064
     20 C          62.8664   85.3001   10.3538 C.ar    1  UNL1        0.0345
     21 BR         63.1828   83.8979    9.9249 Br      1  UNL1       -0.0490
     22 C          62.4090   86.3086    9.3422 C.ar    1  UNL1        0.0064
     23 C          62.0926   87.7107    9.7711 C.ar    1  UNL1       -0.0022
     24 C          66.1496   93.1219   13.0040 C.3     1  UNL1        0.0714
     25 C          66.8869   92.2074   13.9367 C.3     1  UNL1        0.0922
     26 C          66.0659   92.7160   15.0845 C.3     1  UNL1        0.0294
     27 C          67.7079   91.6988   12.7890 C.3     1  UNL1        0.0294
     28 O          67.6242   91.2929   14.8695 O.3     1  UNL1       -0.3866
     29 H          67.2825   91.4059   15.7702 H       1  UNL1        0.2102
@<TRIPOS>BOND
     1    16    15    1
     2    16    17    1
     3    17    18   ar
     4    18    19   ar
     5    19    20   ar
     6    20    21    1
     7    20    22   ar
     8    22    23   ar
     9    16     1    1
    10     1     2    1
    11     2     3    1
    12     3     4    1
    13     4    24    1
    14    24    25    1
    15    25    26    1
    16    25    27    1
    17    25    28    1
    18     4     8    1
    19     8     9   ar
    20     9    10   ar
    21    10    11   ar
    22    11    12    1
    23    11    13   ar
    24    13    14   ar
    25     4     5    1
    26     5     6    1
    27     6     7    2
    28    23    17   ar
    29     6     1   am
    30    14     8   ar
    31    28    29    1
@<TRIPOS>MOLECULE
*****
 29 31 0 0 0
SMALL
GASTEIGER

@<TRIPOS>ATOM
      1 N          63.2592   90.3382   11.9075 N.am    1  UNL1       -0.2438
      2 C          63.9726   90.1163   13.2082 C.3     1  UNL1        0.1009
      3 C          65.1483   90.9728   13.5744 C.3     1  UNL1        0.0662
      4 C          65.6107   92.0512   12.6399 C.3     1  UNL1        0.1600
      5 O          64.8973   92.2731   11.3391 O.3     1  UNL1       -0.4374
      6 C          63.7216   91.4166   10.9729 C.2     1  UNL1        0.4051
      7 O          63.0082   91.6385    9.6722 O.2     1  UNL1       -0.2262
      8 C          66.6045   92.2248   13.7500 C.ar    1  UNL1        0.0140
      9 C          68.0556   91.9302   13.5103 C.ar    1  UNL1        0.0014
     10 C          69.0494   92.1037   14.6204 C.ar    1  UNL1        0.0294
     11 C          68.5920   92.5719   15.9701 C.ar    1  UNL1        0.1401
     12 F          69.5858   92.7455   17.0802 F       1  UNL1       -0.2042
     13 C          67.1409   92.8665   16.2098 C.ar    1  UNL1        0.0294
     14 C          66.1471   92.6929   15.0997 C.ar    1  UNL1        0.0014
     15 C          60.6925   90.0332   11.6452 C.3     1  UNL1        0.0265
     16 C          62.0835   89.4817   11.5413 C.3     1  UNL1        0.1011
     17 C          62.2989   88.0736   11.0711 C.ar    1  UNL1       -0.0041
     18 C          62.1598   87.7394    9.6155 C.ar    1  UNL1       -0.0022
     19 C          62.3752   86.3313    9.1454 C.ar    1  UNL1        0.0064
     20 C          62.7296   85.2575   10.1310 C.ar    1  UNL1        0.0345
     21 BR         62.9450   83.8494    9.6608 Br      1  UNL1       -0.0490
     22 C          62.8687   85.5918   11.5866 C.ar    1  UNL1        0.0064
     23 C          62.6534   86.9998   12.0567 C.ar    1  UNL1       -0.0022
     24 C          66.4182   93.1899   12.0909 C.3     1  UNL1        0.0714
     25 C          66.3651   93.5094   10.6264 C.3     1  UNL1        0.0922
     26 C          67.2133   92.3074   10.3333 C.3     1  UNL1        0.0294
     27 C          65.5169   94.7114   10.9194 C.3     1  UNL1        0.0294
     28 O          66.3120   93.8289    9.1618 O.3     1  UNL1       -0.3866
     29 H          66.8177   93.1649    8.6675 H       1  UNL1        0.2102
@<TRIPOS>BOND
     1    16    15    1
     2    16    17    1
     3    17    18   ar
     4    18    19   ar
     5    19    20   ar
     6    20    21    1
     7    20    22   ar
     8    22    23   ar
     9    16     1    1
    10     1     2    1
    11     2     3    1
    12     3     4    1
    13     4    24    1
    14    24    25    1
    15    25    26    1
    16    25    27    1
    17    25    28    1
    18     4     8    1
    19     8     9   ar
    20     9    10   ar
    21    10    11   ar
    22    11    12    1
    23    11    13   ar
    24    13    14   ar
    25     4     5    1
    26     5     6    1
    27     6     7    2
    28    23    17   ar
    29     6     1   am
    30    14     8   ar
    31    28    29    1
@<TRIPOS>MOLECULE
*****
 29 31 0 0 0
SMALL
GASTEIGER

@<TRIPOS>ATOM
      1 N          62.5959   88.0775   12.1394 N.am    1  UNL1       -0.2438
      2 C          62.3093   87.0392   11.0955 C.3     1  UNL1        0.1009
      3 C          62.7071   85.6118   11.3284 C.3     1  UNL1        0.0662
      4 C          63.3915   85.2227   12.6051 C.3     1  UNL1        0.1600
      5 O          63.6781   86.2610   13.6491 O.3     1  UNL1       -0.4374
      6 C          63.2803   87.6884   13.4162 C.2     1  UNL1        0.4051
      7 O          63.5670   88.7267   14.4601 O.2     1  UNL1       -0.2262
      8 C          63.3358   83.8882   11.9223 C.ar    1  UNL1        0.0140
      9 C          64.0858   83.6691   10.6418 C.ar    1  UNL1        0.0014
     10 C          64.0301   82.3347    9.9590 C.ar    1  UNL1        0.0294
     11 C          63.2245   81.2195   10.5566 C.ar    1  UNL1        0.1401
     12 F          63.1689   79.8850    9.8738 F       1  UNL1       -0.2042
     13 C          62.4746   81.4386   11.8371 C.ar    1  UNL1        0.0294
     14 C          62.5302   82.7730   12.5199 C.ar    1  UNL1        0.0014
     15 C          60.7468   89.8767   11.8334 C.3     1  UNL1        0.0265
     16 C          62.1981   89.5049   11.9065 C.3     1  UNL1        0.1011
     17 C          63.2518   90.5606   11.7467 C.ar    1  UNL1       -0.0041
     18 C          64.0815   90.9765   12.9250 C.ar    1  UNL1       -0.0022
     19 C          65.1351   92.0322   12.7652 C.ar    1  UNL1        0.0064
     20 C          65.3589   92.6719   11.4270 C.ar    1  UNL1        0.0345
     21 BR         66.4125   93.7276   11.2672 Br      1  UNL1       -0.0490
     22 C          64.5292   92.2560   10.2487 C.ar    1  UNL1        0.0064
     23 C          63.4756   91.2003   10.4085 C.ar    1  UNL1       -0.0022
     24 C          64.0566   84.3701   13.6448 C.3     1  UNL1        0.0714
     25 C          64.2139   84.8819   15.0459 C.3     1  UNL1        0.0922
     26 C          65.6299   85.2740   14.7437 C.3     1  UNL1        0.0294
     27 C          62.7980   84.4898   15.3481 C.3     1  UNL1        0.0294
     28 O          64.3713   85.3937   16.4471 O.3     1  UNL1       -0.3866
     29 H          65.2686   85.7430   16.5648 H       1  UNL1        0.2102
@<TRIPOS>BOND
     1    16    15    1
     2    16    17    1
     3    17    18   ar
     4    18    19   ar
     5    19    20   ar
     6    20    21    1
     7    20    22   ar
     8    22    23   ar
     9    16     1    1
    10     1     2    1
    11     2     3    1
    12     3     4    1
    13     4    24    1
    14    24    25    1
    15    25    26    1
    16    25    27    1
    17    25    28    1
    18     4     8    1
    19     8     9   ar
    20     9    10   ar
    21    10    11   ar
    22    11    12    1
    23    11    13   ar
    24    13    14   ar
    25     4     5    1
    26     5     6    1
    27     6     7    2
    28    23    17   ar
    29     6     1   am
    30    14     8   ar
    31    28    29    1
@<TRIPOS>MOLECULE
*****
 29 31 0 0 0
SMALL
GASTEIGER

@<TRIPOS>ATOM
      1 N          63.4926   86.0535   13.8283 N.am    1  UNL1       -0.2438
      2 C          64.3820   87.0160   14.5579 C.3     1  UNL1        0.1009
      3 C          64.4645   88.4460   14.1127 C.3     1  UNL1        0.0662
      4 C          63.6577   88.9135   12.9378 C.3     1  UNL1        0.1600
      5 O          62.7683   87.9509   12.2081 O.3     1  UNL1       -0.4374
      6 C          62.6857   86.5209   12.6533 C.2     1  UNL1        0.4051
      7 O          61.7964   85.5583   11.9237 O.2     1  UNL1       -0.2262
      8 C          64.3504   90.1927   13.3035 C.ar    1  UNL1        0.0140
      9 C          64.6026   91.2354   12.2551 C.ar    1  UNL1        0.0014
     10 C          65.2953   92.5146   12.6208 C.ar    1  UNL1        0.0294
     11 C          65.7359   92.7511   14.0350 C.ar    1  UNL1        0.1401
     12 F          66.4286   94.0303   14.4007 F       1  UNL1       -0.2042
     13 C          65.4837   91.7084   15.0835 C.ar    1  UNL1        0.0294
     14 C          64.7910   90.4292   14.7177 C.ar    1  UNL1        0.0014
     15 C          63.4027   84.2927   15.7366 C.3     1  UNL1        0.0265
     16 C          63.4101   84.6235   14.2736 C.3     1  UNL1        0.1011
     17 C          63.3349   83.5242   13.2557 C.ar    1  UNL1       -0.0041
     18 C          62.3391   82.4149   13.4220 C.ar    1  UNL1       -0.0022
     19 C          62.2640   81.3156   12.4041 C.ar    1  UNL1        0.0064
     20 C          63.1847   81.3257   11.2200 C.ar    1  UNL1        0.0345
     21 BR         63.1096   80.2264   10.2021 Br      1  UNL1       -0.0490
     22 C          64.1806   82.4350   11.0537 C.ar    1  UNL1        0.0064
     23 C          64.2557   83.5342   12.0716 C.ar    1  UNL1       -0.0022
     24 C          63.0914   89.8252   11.8898 C.3     1  UNL1        0.0714
     25 C          61.7688   89.5098   11.2566 C.3     1  UNL1        0.0922
     26 C          61.0684   89.9028   12.5235 C.3     1  UNL1        0.0294
     27 C          62.4691   89.1168    9.9897 C.3     1  UNL1        0.0294
     28 O          60.4461   89.1944   10.6233 O.3     1  UNL1       -0.3866
     29 H          59.7341   89.3660   11.2593 H       1  UNL1        0.2102
@<TRIPOS>BOND
     1    16    15    1
     2    16    17    1
     3    17    18   ar
     4    18    19   ar
     5    19    20   ar
     6    20    21    1
     7    20    22   ar
     8    22    23   ar
     9    16     1    1
    10     1     2    1
    11     2     3    1
    12     3     4    1
    13     4    24    1
    14    24    25    1
    15    25    26    1
    16    25    27    1
    17    25    28    1
    18     4     8    1
    19     8     9   ar
    20     9    10   ar
    21    10    11   ar
    22    11    12    1
    23    11    13   ar
    24    13    14   ar
    25     4     5    1
    26     5     6    1
    27     6     7    2
    28    23    17   ar
    29     6     1   am
    30    14     8   ar
    31    28    29    1
@<TRIPOS>MOLECULE
*****
 29 31 0 0 0
SMALL
GASTEIGER

@<TRIPOS>ATOM
      1 N          62.0344   89.2682   11.2597 N.am    1  UNL1       -0.2438
      2 C          62.7139   90.6026   11.3473 C.3     1  UNL1        0.1009
      3 C          63.7176   90.8634   12.4310 C.3     1  UNL1        0.0662
      4 C          64.0419   89.7899   13.4271 C.3     1  UNL1        0.1600
      5 O          63.3624   88.4554   13.3396 O.3     1  UNL1       -0.4374
      6 C          62.3587   88.1946   12.2558 C.2     1  UNL1        0.4051
      7 O          61.6792   86.8602   12.1682 O.2     1  UNL1       -0.2262
      8 C          64.9426   90.8834   13.9202 C.ar    1  UNL1        0.0140
      9 C          64.8938   91.3035   15.3593 C.ar    1  UNL1        0.0014
     10 C          65.7946   92.3970   15.8523 C.ar    1  UNL1        0.0294
     11 C          66.7440   93.0702   14.9062 C.ar    1  UNL1        0.1401
     12 F          67.6448   94.1637   15.3992 F       1  UNL1       -0.2042
     13 C          66.7928   92.6501   13.4670 C.ar    1  UNL1        0.0294
     14 C          65.8921   91.5566   12.9740 C.ar    1  UNL1        0.0014
     15 C          59.8555   89.9238   10.0056 C.3     1  UNL1        0.0265
     16 C          61.0307   89.0073   10.1759 C.3     1  UNL1        0.1011
     17 C          61.2021   87.8299    9.2624 C.ar    1  UNL1       -0.0041
     18 C          62.5051   87.0874    9.2324 C.ar    1  UNL1       -0.0022
     19 C          62.6765   85.9101    8.3190 C.ar    1  UNL1        0.0064
     20 C          61.5450   85.4752    7.4356 C.ar    1  UNL1        0.0345
     21 BR         61.7164   84.2978    6.5221 Br      1  UNL1       -0.0490
     22 C          60.2420   86.2177    7.4656 C.ar    1  UNL1        0.0064
     23 C          60.0706   87.3950    8.3790 C.ar    1  UNL1       -0.0022
     24 C          64.6790   89.0961   14.5945 C.3     1  UNL1        0.0714
     25 C          63.9014   88.0818   15.3797 C.3     1  UNL1        0.0922
     26 C          64.7430   86.9854   14.7969 C.3     1  UNL1        0.0294
     27 C          63.0599   89.1781   15.9626 C.3     1  UNL1        0.0294
     28 O          63.1239   87.0674   16.1649 O.3     1  UNL1       -0.3866
     29 H          63.4695   86.1803   15.9788 H       1  UNL1        0.2102
@<TRIPOS>BOND
     1    16    15    1
     2    16    17    1
     3    17    18   ar
     4    18    19   ar
     5    19    20   ar
     6    20    21    1
     7    20    22   ar
     8    22    23   ar
     9    16     1    1
    10     1     2    1
    11     2     3    1
    12     3     4    1
    13     4    24    1
    14    24    25    1
    15    25    26    1
    16    25    27    1
    17    25    28    1
    18     4     8    1
    19     8     9   ar
    20     9    10   ar
    21    10    11   ar
    22    11    12    1
    23    11    13   ar
    24    13    14   ar
    25     4     5    1
    26     5     6    1
    27     6     7    2
    28    23    17   ar
    29     6     1   am
    30    14     8   ar
    31    28    29    1
@<TRIPOS>MOLECULE
*****
 29 31 0 0 0
SMALL
GASTEIGER

@<TRIPOS>ATOM
      1 N          63.7364   88.8849   13.3213 N.am    1  UNL1       -0.2438
      2 C          64.1934   87.6896   14.1038 C.3     1  UNL1        0.1009
      3 C          63.8301   86.3087   13.6443 C.3     1  UNL1        0.0662
      4 C          63.0097   86.1231   12.4024 C.3     1  UNL1        0.1600
      5 O          62.5526   87.3185   11.6198 O.3     1  UNL1       -0.4374
      6 C          62.9160   88.6993   12.0793 C.2     1  UNL1        0.4051
      7 O          62.4590   89.8947   11.2968 O.2     1  UNL1       -0.2262
      8 C          63.2054   84.6905   12.8018 C.ar    1  UNL1        0.0140
      9 C          62.5326   84.1561   14.0313 C.ar    1  UNL1        0.0014
     10 C          62.7283   82.7235   14.4306 C.ar    1  UNL1        0.0294
     11 C          63.5968   81.8255   13.6004 C.ar    1  UNL1        0.1401
     12 F          63.7925   80.3929   13.9998 F       1  UNL1       -0.2042
     13 C          64.2696   82.3599   12.3709 C.ar    1  UNL1        0.0294
     14 C          64.0739   83.7925   11.9715 C.ar    1  UNL1        0.0014
     15 C          63.6819   90.7375   15.1419 C.3     1  UNL1        0.0265
     16 C          64.0998   90.2658   13.7808 C.3     1  UNL1        0.1011
     17 C          64.8811   91.1749   12.8790 C.ar    1  UNL1       -0.0041
     18 C          64.2794   91.6509   11.5901 C.ar    1  UNL1       -0.0022
     19 C          65.0607   92.5600   10.6884 C.ar    1  UNL1        0.0064
     20 C          66.4436   92.9931   11.0756 C.ar    1  UNL1        0.0345
     21 BR         67.2249   93.9023   10.1738 Br      1  UNL1       -0.0490
     22 C          67.0453   92.5171   12.3645 C.ar    1  UNL1        0.0064
     23 C          66.2640   91.6080   13.2662 C.ar    1  UNL1       -0.0022
     24 C          62.2572   85.4400   11.2991 C.3     1  UNL1        0.0714
     25 C          61.7509   86.2352   10.1324 C.3     1  UNL1        0.0922
     26 C          60.6447   86.7821   10.9852 C.3     1  UNL1        0.0294
     27 C          62.8570   85.6883    9.2796 C.3     1  UNL1        0.0294
     28 O          61.2445   87.0304    8.9657 O.3     1  UNL1       -0.3866
     29 H          60.4609   87.5352    9.2342 H       1  UNL1        0.2102
@<TRIPOS>BOND
     1    16    15    1
     2    16    17    1
     3    17    18   ar
     4    18    19   ar
     5    19    20   ar
     6    20    21    1
     7    20    22   ar
     8    22    23   ar
     9    16     1    1
    10     1     2    1
    11     2     3    1
    12     3     4    1
    13     4    24    1
    14    24    25    1
    15    25    26    1
    16    25    27    1
    17    25    28    1
    18     4     8    1
    19     8     9   ar
    20     9    10   ar
    21    10    11   ar
    22    11    12    1
    23    11    13   ar
    24    13    14   ar
    25     4     5    1
    26     5     6    1
    27     6     7    2
    28    23    17   ar
    29     6     1   am
    30    14     8   ar
    31    28    29    1
@<TRIPOS>MOLECULE
*****
 29 31 0 0 0
SMALL
GASTEIGER

@<TRIPOS>ATOM
      1 N          63.3469   86.0877   13.0536 N.am    1  UNL1       -0.2438
      2 C          62.4558   85.6762   11.9194 C.3     1  UNL1        0.1009
      3 C          61.9155   86.7104   10.9767 C.3     1  UNL1        0.0662
      4 C          62.2664   88.1561   11.1683 C.3     1  UNL1        0.1600
      5 O          63.1576   88.5677   12.3026 O.3     1  UNL1       -0.4374
      6 C          63.6978   87.5335   13.2452 C.2     1  UNL1        0.4051
      7 O          64.5890   87.9450   14.3795 O.2     1  UNL1       -0.2262
      8 C          61.3916   88.2591    9.9542 C.ar    1  UNL1        0.0140
      9 C          60.8901   89.5987    9.5026 C.ar    1  UNL1        0.0014
     10 C          60.0152   89.7017    8.2884 C.ar    1  UNL1        0.0294
     11 C          59.6421   88.4651    7.5259 C.ar    1  UNL1        0.1401
     12 F          58.7673   88.5681    6.3118 F       1  UNL1       -0.2042
     13 C          60.1436   87.1255    7.9775 C.ar    1  UNL1        0.0294
     14 C          61.0184   87.0225    9.1916 C.ar    1  UNL1        0.0014
     15 C          64.8278   85.4566   15.0929 C.3     1  UNL1        0.0265
     16 C          63.8871   85.0535   13.9962 C.3     1  UNL1        0.1011
     17 C          63.4867   83.6161   13.8422 C.ar    1  UNL1       -0.0041
     18 C          62.2913   83.0876   14.5781 C.ar    1  UNL1       -0.0022
     19 C          61.8909   81.6503   14.4241 C.ar    1  UNL1        0.0064
     20 C          62.6859   80.7415   13.5341 C.ar    1  UNL1        0.0345
     21 BR         62.2854   79.3041   13.3801 Br      1  UNL1       -0.0490
     22 C          63.8813   81.2700   12.7982 C.ar    1  UNL1        0.0064
     23 C          64.2817   82.7073   12.9523 C.ar    1  UNL1       -0.0022
     24 C          62.3135   89.6377   10.9382 C.3     1  UNL1        0.0714
     25 C          62.7138   90.5575   12.0534 C.3     1  UNL1        0.0922
     26 C          61.5513   90.0745   12.8691 C.3     1  UNL1        0.0294
     27 C          63.8762   91.0405   11.2378 C.3     1  UNL1        0.0294
     28 O          63.1140   91.4773   13.1686 O.3     1  UNL1       -0.3866
     29 H          62.4915   91.3810   13.9063 H       1  UNL1        0.2102
@<TRIPOS>BOND
     1    16    15    1
     2    16    17    1
     3    17    18   ar
     4    18    19   ar
     5    19    20   ar
     6    20    21    1
     7    20    22   ar
     8    22    23   ar
     9    16     1    1
    10     1     2    1
    11     2     3    1
    12     3     4    1
    13     4    24    1
    14    24    25    1
    15    25    26    1
    16    25    27    1
    17    25    28    1
    18     4     8    1
    19     8     9   ar
    20     9    10   ar
    21    10    11   ar
    22    11    12    1
    23    11    13   ar
    24    13    14   ar
    25     4     5    1
    26     5     6    1
    27     6     7    2
    28    23    17   ar
    29     6     1   am
    30    14     8   ar
    31    28    29    1
@<TRIPOS>MOLECULE
*****
 29 31 0 0 0
SMALL
GASTEIGER

@<TRIPOS>ATOM
      1 N          62.7570   86.5991   11.3327 N.am    1  UNL1       -0.2438
      2 C          62.8754   88.0729   11.5851 C.3     1  UNL1        0.1009
      3 C          63.3284   88.5702   12.9258 C.3     1  UNL1        0.0662
      4 C          63.6629   87.5937   14.0142 C.3     1  UNL1        0.1600
      5 O          63.5445   86.1198   13.7618 O.3     1  UNL1       -0.4374
      6 C          63.0915   85.6225   12.4211 C.2     1  UNL1        0.4051
      7 O          62.9730   84.1486   12.1687 O.2     1  UNL1       -0.2262
      8 C          63.9298   88.8841   14.7310 C.ar    1  UNL1        0.0140
      9 C          64.8786   89.8861   14.1433 C.ar    1  UNL1        0.0014
     10 C          65.1455   91.1765   14.8601 C.ar    1  UNL1        0.0294
     11 C          64.4634   91.4647   16.1646 C.ar    1  UNL1        0.1401
     12 F          64.7302   92.7550   16.8815 F       1  UNL1       -0.2042
     13 C          63.5145   90.4626   16.7523 C.ar    1  UNL1        0.0294
     14 C          63.2477   89.1722   16.0355 C.ar    1  UNL1        0.0014
     15 C          62.8055   84.7877    9.4709 C.3     1  UNL1        0.0265
     16 C          62.3040   86.1018    9.9920 C.3     1  UNL1        0.1011
     17 C          61.3494   86.9186    9.1724 C.ar    1  UNL1       -0.0041
     18 C          61.2553   88.4003    9.3861 C.ar    1  UNL1       -0.0022
     19 C          60.3008   89.2171    8.5666 C.ar    1  UNL1        0.0064
     20 C          59.4404   88.5521    7.5333 C.ar    1  UNL1        0.0345
     21 BR         58.4858   89.3690    6.7137 Br      1  UNL1       -0.0490
     22 C          59.5345   87.0705    7.3196 C.ar    1  UNL1        0.0064
     23 C          60.4891   86.2537    8.1392 C.ar    1  UNL1       -0.0022
     24 C          64.0901   87.0652   15.3515 C.3     1  UNL1        0.0714
     25 C          64.3134   85.5940   15.5400 C.3     1  UNL1        0.0922
     26 C          62.9935   85.4840   16.2443 C.3     1  UNL1        0.0294
     27 C          65.6332   85.7041   14.8358 C.3     1  UNL1        0.0294
     28 O          64.5366   84.1228   15.7287 O.3     1  UNL1       -0.3866
     29 H          63.7800   83.7386   16.1987 H       1  UNL1        0.2102
@<TRIPOS>BOND
     1    16    15    1
     2    16    17    1
     3    17    18   ar
     4    18    19   ar
     5    19    20   ar
     6    20    21    1
     7    20    22   ar
     8    22    23   ar
     9    16     1    1
    10     1     2    1
    11     2     3    1
    12     3     4    1
    13     4    24    1
    14    24    25    1
    15    25    26    1
    16    25    27    1
    17    25    28    1
    18     4     8    1
    19     8     9   ar
    20     9    10   ar
    21    10    11   ar
    22    11    12    1
    23    11    13   ar
    24    13    14   ar
    25     4     5    1
    26     5     6    1
    27     6     7    2
    28    23    17   ar
    29     6     1   am
    30    14     8   ar
    31    28    29    1
@<TRIPOS>MOLECULE
*****
 29 31 0 0 0
SMALL
GASTEIGER

@<TRIPOS>ATOM
      1 N          62.8044   86.1538   11.3633 N.am    1  UNL1       -0.2438
      2 C          63.7482   86.5709   12.4518 C.3     1  UNL1        0.1009
      3 C          63.6591   87.9505   13.0340 C.3     1  UNL1        0.0662
      4 C          62.6260   88.9129   12.5275 C.3     1  UNL1        0.1600
      5 O          61.6821   88.4958   11.4389 O.3     1  UNL1       -0.4374
      6 C          61.7712   87.1162   10.8568 C.2     1  UNL1        0.4051
      7 O          60.8274   86.6991    9.7682 O.2     1  UNL1       -0.2262
      8 C          63.2914   89.7674   13.5654 C.ar    1  UNL1        0.0140
      9 C          62.8960   89.6411   15.0068 C.ar    1  UNL1        0.0014
     10 C          63.5614   90.4955   16.0447 C.ar    1  UNL1        0.0294
     11 C          64.6221   91.4762   15.6411 C.ar    1  UNL1        0.1401
     12 F          65.2875   92.3307   16.6791 F       1  UNL1       -0.2042
     13 C          65.0176   91.6025   14.1997 C.ar    1  UNL1        0.0294
     14 C          64.3522   90.7481   13.1618 C.ar    1  UNL1        0.0014
     15 C          63.1361   84.5944    9.3119 C.3     1  UNL1        0.0265
     16 C          62.8935   84.7742   10.7811 C.3     1  UNL1        0.1011
     17 C          62.7401   83.5745   11.6684 C.ar    1  UNL1       -0.0041
     18 C          62.9357   82.1971   11.1076 C.ar    1  UNL1       -0.0022
     19 C          62.7822   80.9974   11.9948 C.ar    1  UNL1        0.0064
     20 C          62.4333   81.1751   13.4428 C.ar    1  UNL1        0.0345
     21 BR         62.2799   79.9753   14.3300 Br      1  UNL1       -0.0490
     22 C          62.2378   82.5525   14.0036 C.ar    1  UNL1        0.0064
     23 C          62.3912   83.7522   13.1164 C.ar    1  UNL1       -0.0022
     24 C          61.8240   90.1721   12.3815 C.3     1  UNL1        0.0714
     25 C          61.0057   90.4010   11.1455 C.3     1  UNL1        0.0922
     26 C          62.2520   90.7412   10.3833 C.3     1  UNL1        0.0294
     27 C          59.7594   90.0608   11.9076 C.3     1  UNL1        0.0294
     28 O          60.1874   90.6299    9.9094 O.3     1  UNL1       -0.3866
     29 H          60.7709   90.8867    9.1783 H       1  UNL1        0.2102
@<TRIPOS>BOND
     1    16    15    1
     2    16    17    1
     3    17    18   ar
     4    18    19   ar
     5    19    20   ar
     6    20    21    1
     7    20    22   ar
     8    22    23   ar
     9    16     1    1
    10     1     2    1
    11     2     3    1
    12     3     4    1
    13     4    24    1
    14    24    25    1
    15    25    26    1
    16    25    27    1
    17    25    28    1
    18     4     8    1
    19     8     9   ar
    20     9    10   ar
    21    10    11   ar
    22    11    12    1
    23    11    13   ar
    24    13    14   ar
    25     4     5    1
    26     5     6    1
    27     6     7    2
    28    23    17   ar
    29     6     1   am
    30    14     8   ar
    31    28    29    1
