@<TRIPOS>MOLECULE
*****
 30 33 0 0 0
SMALL
GASTEIGER

@<TRIPOS>ATOM
      1 C          62.5590   88.4082   11.0464 C.3     1  UNL1        0.0219
      2 C          63.1629   87.7191   12.2341 C.3     1  UNL1        0.0820
      3 C          63.2383   86.2215   12.2739 C.3     1  UNL1        0.0671
      4 C          63.8421   85.5323   13.4615 C.ar    1  UNL1        0.0837
      5 C          64.3706   86.3407   14.6093 C.ar    1  UNL1        0.1159
      6 N          64.9069   85.3899   15.6380 N.ar    1  UNL1       -0.1314
      7 N          64.7098   83.9938   15.1260 N.ar    1  UNL1       -0.0576
      8 N          64.0518   84.0818   13.7809 N.ar    1  UNL1       -0.1813
      9 C          64.2952   87.8383   14.5694 C.3     1  UNL1        0.1426
     10 N          63.6913   88.5274   13.3817 N.am    1  UNL1       -0.2715
     11 C          63.6159   90.0251   13.3418 C.2     1  UNL1        0.2515
     12 O          63.0121   90.7143   12.1542 O.2     1  UNL1       -0.2698
     13 C          63.6704   82.9228   12.9084 C.ar    1  UNL1        0.2543
     14 N          62.9791   81.7319   13.5032 N.ar    1  UNL1       -0.2060
     15 C          62.5977   80.5729   12.6307 C.ar    1  UNL1        0.1332
     16 C          62.9076   80.6047   11.1635 C.ar    1  UNL1        0.1784
     17 F          62.5263   79.4457   10.2910 F       1  UNL1       -0.2009
     18 C          63.5991   81.7957   10.5687 C.ar    1  UNL1        0.1332
     19 N          63.9804   82.9547   11.4411 N.ar    1  UNL1       -0.2060
     20 C          64.1443   90.8335   14.4895 C.ar    1  UNL1        0.0840
     21 C          63.3703   90.9102   15.7721 C.ar    1  UNL1        0.0274
     22 C          63.8988   91.7185   16.9198 C.ar    1  UNL1        0.0991
     23 N          65.2012   92.4503   16.7850 N.ar    1  UNL1       -0.2377
     24 C          65.9752   92.3736   15.5024 C.ar    1  UNL1        0.1802
     25 C          65.4468   91.5652   14.3547 C.ar    1  UNL1        0.1660
     26 F          66.2208   91.4885   13.0721 F       1  UNL1       -0.2025
     27 C          67.2778   93.1053   15.3674 C.3     1  UNL1        0.4370
     28 F          68.5803   93.8369   15.2325 F       1  UNL1       -0.1643
     29 F          67.9190   92.1391   16.3189 F       1  UNL1       -0.1643
     30 F          66.6365   94.0714   14.4160 F       1  UNL1       -0.1643
@<TRIPOS>BOND
     1     2     1    1
     2     2     3    1
     3     3     4    1
     4     4     5   ar
     5     5     6   ar
     6     6     7   ar
     7     7     8   ar
     8     8    13    1
     9    13    14   ar
    10    14    15   ar
    11    15    16   ar
    12    16    17    1
    13    16    18   ar
    14    18    19   ar
    15     5     9    1
    16     9    10    1
    17    10    11   am
    18    11    12    2
    19    11    20    1
    20    20    21   ar
    21    21    22   ar
    22    22    23   ar
    23    23    24   ar
    24    24    27    1
    25    27    28    1
    26    27    29    1
    27    27    30    1
    28    24    25   ar
    29    25    26    1
    30    10     2    1
    31    25    20   ar
    32     8     4   ar
    33    19    13   ar
@<TRIPOS>MOLECULE
*****
 30 33 0 0 0
SMALL
GASTEIGER

@<TRIPOS>ATOM
      1 C          63.4897   86.7365   13.7602 C.3     1  UNL1        0.0219
      2 C          63.4443   87.9043   12.8199 C.3     1  UNL1        0.0820
      3 C          64.1580   89.1766   13.1692 C.3     1  UNL1        0.0671
      4 C          64.1127   90.3444   12.2290 C.ar    1  UNL1        0.0837
      5 C          63.3538   90.2400   10.9393 C.ar    1  UNL1        0.1159
      6 N          63.4862   91.5476   10.2163 N.ar    1  UNL1       -0.1314
      7 N          64.3270   92.4601   11.0592 N.ar    1  UNL1       -0.0576
      8 N          64.7141   91.7166   12.3030 N.ar    1  UNL1       -0.1813
      9 C          62.6401   88.9677   10.5900 C.3     1  UNL1        0.1426
     10 N          62.6855   87.7999   11.5303 N.am    1  UNL1       -0.2715
     11 C          61.9718   86.5275   11.1809 C.2     1  UNL1        0.2515
     12 O          62.0171   85.3597   12.1212 O.2     1  UNL1       -0.2698
     13 C          65.5551   92.2513   13.4241 C.ar    1  UNL1        0.2543
     14 N          65.0910   92.1095   14.8434 N.ar    1  UNL1       -0.2060
     15 C          65.9320   92.6442   15.9645 C.ar    1  UNL1        0.1332
     16 C          67.2371   93.3206   15.6663 C.ar    1  UNL1        0.1784
     17 F          68.0781   93.8554   16.7874 F       1  UNL1       -0.2009
     18 C          67.7012   93.4624   14.2469 C.ar    1  UNL1        0.1332
     19 N          66.8603   92.9277   13.1259 N.ar    1  UNL1       -0.2060
     20 C          61.2129   86.4231    9.8913 C.ar    1  UNL1        0.0840
     21 C          59.9043   87.1385    9.7311 C.ar    1  UNL1        0.0274
     22 C          59.1454   87.0341    8.4414 C.ar    1  UNL1        0.0991
     23 N          59.6951   86.2143    7.3120 N.ar    1  UNL1       -0.2377
     24 C          61.0038   85.4989    7.4722 C.ar    1  UNL1        0.1802
     25 C          61.7627   85.6033    8.7618 C.ar    1  UNL1        0.1660
     26 F          63.0713   84.8879    8.9220 F       1  UNL1       -0.2025
     27 C          61.5536   84.6790    6.3427 C.3     1  UNL1        0.4370
     28 F          62.1033   83.8592    5.2133 F       1  UNL1       -0.1643
     29 F          60.1830   84.1330    6.0720 F       1  UNL1       -0.1643
     30 F          62.9241   85.2251    6.6135 F       1  UNL1       -0.1643
@<TRIPOS>BOND
     1     2     1    1
     2     2     3    1
     3     3     4    1
     4     4     5   ar
     5     5     6   ar
     6     6     7   ar
     7     7     8   ar
     8     8    13    1
     9    13    14   ar
    10    14    15   ar
    11    15    16   ar
    12    16    17    1
    13    16    18   ar
    14    18    19   ar
    15     5     9    1
    16     9    10    1
    17    10    11   am
    18    11    12    2
    19    11    20    1
    20    20    21   ar
    21    21    22   ar
    22    22    23   ar
    23    23    24   ar
    24    24    27    1
    25    27    28    1
    26    27    29    1
    27    27    30    1
    28    24    25   ar
    29    25    26    1
    30    10     2    1
    31    25    20   ar
    32     8     4   ar
    33    19    13   ar
@<TRIPOS>MOLECULE
*****
 30 33 0 0 0
SMALL
GASTEIGER

@<TRIPOS>ATOM
      1 C          61.6712   87.7123   10.6746 C.3     1  UNL1        0.0219
      2 C          62.5704   87.3940   11.8323 C.3     1  UNL1        0.0820
      3 C          62.6512   85.9904   12.3553 C.3     1  UNL1        0.0671
      4 C          63.5504   85.6721   13.5130 C.ar    1  UNL1        0.0837
      5 C          64.3688   86.7572   14.1476 C.ar    1  UNL1        0.1159
      6 N          65.1598   86.1471   15.2666 N.ar    1  UNL1       -0.1314
      7 N          64.8303   84.6848   15.3235 N.ar    1  UNL1       -0.0576
      8 N          63.8356   84.3912   14.2397 N.ar    1  UNL1       -0.1813
      9 C          64.2879   88.1607   13.6246 C.3     1  UNL1        0.1426
     10 N          63.3887   88.4791   12.4669 N.am    1  UNL1       -0.2715
     11 C          63.3079   89.8827   11.9438 C.2     1  UNL1        0.2515
     12 O          62.4087   90.2011   10.7862 O.2     1  UNL1       -0.2698
     13 C          63.2322   83.0520   13.9360 C.ar    1  UNL1        0.2543
     14 N          61.9786   82.6181   14.6361 N.ar    1  UNL1       -0.2060
     15 C          61.3751   81.2788   14.3324 C.ar    1  UNL1        0.1332
     16 C          62.0253   80.3734   13.3288 C.ar    1  UNL1        0.1784
     17 F          61.4218   79.0342   13.0251 F       1  UNL1       -0.2009
     18 C          63.2790   80.8073   12.6287 C.ar    1  UNL1        0.1332
     19 N          63.8824   82.1465   12.9323 N.ar    1  UNL1       -0.2060
     20 C          64.1263   90.9678   12.5785 C.ar    1  UNL1        0.0840
     21 C          64.1948   91.0790   14.0728 C.ar    1  UNL1        0.0274
     22 C          65.0131   92.1641   14.7074 C.ar    1  UNL1        0.0991
     23 N          65.7630   93.1381   13.8477 N.ar    1  UNL1       -0.2377
     24 C          65.6944   93.0270   12.3535 C.ar    1  UNL1        0.1802
     25 C          64.8761   91.9419   11.7188 C.ar    1  UNL1        0.1660
     26 F          64.8075   91.8307   10.2245 F       1  UNL1       -0.2025
     27 C          66.4442   94.0010   11.4936 C.3     1  UNL1        0.4370
     28 F          67.1939   94.9751   10.6339 F       1  UNL1       -0.1643
     29 F          65.7122   95.1378   12.1432 F       1  UNL1       -0.1643
     30 F          67.1762   92.8642   10.8442 F       1  UNL1       -0.1643
@<TRIPOS>BOND
     1     2     1    1
     2     2     3    1
     3     3     4    1
     4     4     5   ar
     5     5     6   ar
     6     6     7   ar
     7     7     8   ar
     8     8    13    1
     9    13    14   ar
    10    14    15   ar
    11    15    16   ar
    12    16    17    1
    13    16    18   ar
    14    18    19   ar
    15     5     9    1
    16     9    10    1
    17    10    11   am
    18    11    12    2
    19    11    20    1
    20    20    21   ar
    21    21    22   ar
    22    22    23   ar
    23    23    24   ar
    24    24    27    1
    25    27    28    1
    26    27    29    1
    27    27    30    1
    28    24    25   ar
    29    25    26    1
    30    10     2    1
    31    25    20   ar
    32     8     4   ar
    33    19    13   ar
@<TRIPOS>MOLECULE
*****
 30 33 0 0 0
SMALL
GASTEIGER

@<TRIPOS>ATOM
      1 C          61.6766   87.7013   10.7397 C.3     1  UNL1        0.0219
      2 C          62.5848   87.3650   11.8853 C.3     1  UNL1        0.0820
      3 C          62.6753   85.9521   12.3808 C.3     1  UNL1        0.0671
      4 C          63.5834   85.6158   13.5263 C.ar    1  UNL1        0.0837
      5 C          64.4009   86.6924   14.1765 C.ar    1  UNL1        0.1159
      6 N          65.2018   86.0647   15.2784 N.ar    1  UNL1       -0.1314
      7 N          64.8794   84.6001   15.3094 N.ar    1  UNL1       -0.0576
      8 N          63.8791   84.3227   14.2265 N.ar    1  UNL1       -0.1813
      9 C          64.3103   88.1053   13.6810 C.3     1  UNL1        0.1426
     10 N          63.4022   88.4416   12.5354 N.am    1  UNL1       -0.2715
     11 C          63.3116   89.8546   12.0399 C.2     1  UNL1        0.2515
     12 O          62.4035   90.1909   10.8944 O.2     1  UNL1       -0.2698
     13 C          63.2799   82.9866   13.9010 C.ar    1  UNL1        0.2543
     14 N          62.0443   82.5249   14.6152 N.ar    1  UNL1       -0.2060
     15 C          61.4449   81.1888   14.2897 C.ar    1  UNL1        0.1332
     16 C          62.0812   80.3146   13.2502 C.ar    1  UNL1        0.1784
     17 F          61.4820   78.9786   12.9247 F       1  UNL1       -0.2009
     18 C          63.3169   80.7765   12.5360 C.ar    1  UNL1        0.1332
     19 N          63.9162   82.1124   12.8614 N.ar    1  UNL1       -0.2060
     20 C          64.1290   90.9312   12.6901 C.ar    1  UNL1        0.0840
     21 C          64.9124   91.8916   11.8451 C.ar    1  UNL1        0.0274
     22 C          65.7298   92.9682   12.4952 C.ar    1  UNL1        0.0991
     23 N          65.7640   93.0844   13.9903 N.ar    1  UNL1       -0.2377
     24 C          64.9807   92.1240   14.8353 C.ar    1  UNL1        0.1802
     25 C          64.1632   91.0474   14.1851 C.ar    1  UNL1        0.1660
     26 F          63.3799   90.0869   15.0301 F       1  UNL1       -0.2025
     27 C          65.0148   92.2401   16.3304 C.3     1  UNL1        0.4370
     28 F          65.0487   92.3561   17.8256 F       1  UNL1       -0.1643
     29 F          63.5421   91.9603   16.3856 F       1  UNL1       -0.1643
     30 F          66.4874   92.5198   16.2752 F       1  UNL1       -0.1643
@<TRIPOS>BOND
     1     2     1    1
     2     2     3    1
     3     3     4    1
     4     4     5   ar
     5     5     6   ar
     6     6     7   ar
     7     7     8   ar
     8     8    13    1
     9    13    14   ar
    10    14    15   ar
    11    15    16   ar
    12    16    17    1
    13    16    18   ar
    14    18    19   ar
    15     5     9    1
    16     9    10    1
    17    10    11   am
    18    11    12    2
    19    11    20    1
    20    20    21   ar
    21    21    22   ar
    22    22    23   ar
    23    23    24   ar
    24    24    27    1
    25    27    28    1
    26    27    29    1
    27    27    30    1
    28    24    25   ar
    29    25    26    1
    30    10     2    1
    31    25    20   ar
    32     8     4   ar
    33    19    13   ar
@<TRIPOS>MOLECULE
*****
 30 33 0 0 0
SMALL
GASTEIGER

@<TRIPOS>ATOM
      1 C          62.8105   89.5940   11.2362 C.3     1  UNL1        0.0219
      2 C          62.0413   88.5739   10.4501 C.3     1  UNL1        0.0820
      3 C          61.2808   88.9884    9.2254 C.3     1  UNL1        0.0671
      4 C          60.5116   87.9684    8.4393 C.ar    1  UNL1        0.0837
      5 C          60.5029   86.5340    8.8779 C.ar    1  UNL1        0.1159
      6 N          59.6602   85.7582    7.9094 N.ar    1  UNL1       -0.1314
      7 N          59.1482   86.7132    6.8722 N.ar    1  UNL1       -0.0576
      8 N          59.6743   88.0792    7.1997 N.ar    1  UNL1       -0.1813
      9 C          61.2633   86.1195   10.1026 C.3     1  UNL1        0.1426
     10 N          62.0326   87.1396   10.8887 N.am    1  UNL1       -0.2715
     11 C          62.7931   86.7251   12.1134 C.2     1  UNL1        0.2515
     12 O          63.5623   87.7451   12.8995 O.2     1  UNL1       -0.2698
     13 C          59.4097   89.3353    6.4238 C.ar    1  UNL1        0.2543
     14 N          60.5486   90.0838    5.7972 N.ar    1  UNL1       -0.2060
     15 C          60.2840   91.3400    5.0213 C.ar    1  UNL1        0.1332
     16 C          58.8805   91.8476    4.8719 C.ar    1  UNL1        0.1784
     17 F          58.6159   93.1038    4.0960 F       1  UNL1       -0.2009
     18 C          57.7415   91.0990    5.4985 C.ar    1  UNL1        0.1332
     19 N          58.0061   89.8429    6.2744 N.ar    1  UNL1       -0.2060
     20 C          62.7844   85.2907   12.5520 C.ar    1  UNL1        0.0840
     21 C          62.4866   84.9452   13.9810 C.ar    1  UNL1        0.0274
     22 C          62.4779   83.5107   14.4196 C.ar    1  UNL1        0.0991
     23 N          62.7669   82.4219   13.4292 N.ar    1  UNL1       -0.2377
     24 C          63.0647   82.7674   12.0003 C.ar    1  UNL1        0.1802
     25 C          63.0735   84.2019   11.5617 C.ar    1  UNL1        0.1660
     26 F          63.3713   84.5474   10.1328 F       1  UNL1       -0.2025
     27 C          63.3539   81.6786   11.0098 C.3     1  UNL1        0.4370
     28 F          63.6429   80.5898   10.0194 F       1  UNL1       -0.1643
     29 F          62.2414   80.8561   11.5894 F       1  UNL1       -0.1643
     30 F          64.4663   82.5011   10.4303 F       1  UNL1       -0.1643
@<TRIPOS>BOND
     1     2     1    1
     2     2     3    1
     3     3     4    1
     4     4     5   ar
     5     5     6   ar
     6     6     7   ar
     7     7     8   ar
     8     8    13    1
     9    13    14   ar
    10    14    15   ar
    11    15    16   ar
    12    16    17    1
    13    16    18   ar
    14    18    19   ar
    15     5     9    1
    16     9    10    1
    17    10    11   am
    18    11    12    2
    19    11    20    1
    20    20    21   ar
    21    21    22   ar
    22    22    23   ar
    23    23    24   ar
    24    24    27    1
    25    27    28    1
    26    27    29    1
    27    27    30    1
    28    24    25   ar
    29    25    26    1
    30    10     2    1
    31    25    20   ar
    32     8     4   ar
    33    19    13   ar
@<TRIPOS>MOLECULE
*****
 30 33 0 0 0
SMALL
GASTEIGER

@<TRIPOS>ATOM
      1 C          61.2942   87.3000   10.6085 C.3     1  UNL1        0.0219
      2 C          62.2743   87.0411   11.7142 C.3     1  UNL1        0.0820
      3 C          62.4131   85.6611   12.2854 C.3     1  UNL1        0.0671
      4 C          63.3931   85.4022   13.3911 C.ar    1  UNL1        0.0837
      5 C          64.2343   86.5233   13.9256 C.ar    1  UNL1        0.1159
      6 N          65.1086   85.9698   15.0115 N.ar    1  UNL1       -0.1314
      7 N          64.8078   84.5067   15.1481 N.ar    1  UNL1       -0.0576
      8 N          63.7476   84.1558   14.1466 N.ar    1  UNL1       -0.1813
      9 C          64.0954   87.9033   13.3544 C.3     1  UNL1        0.1426
     10 N          63.1153   88.1622   12.2487 N.am    1  UNL1       -0.2715
     11 C          62.9764   89.5423   11.6775 C.2     1  UNL1        0.2515
     12 O          61.9964   89.8012   10.5718 O.2     1  UNL1       -0.2698
     13 C          63.1474   82.7972   13.9375 C.ar    1  UNL1        0.2543
     14 N          63.9253   81.7365   13.2166 N.ar    1  UNL1       -0.2060
     15 C          63.3250   80.3778   13.0074 C.ar    1  UNL1        0.1332
     16 C          61.9469   80.0799   13.5192 C.ar    1  UNL1        0.1784
     17 F          61.3466   78.7212   13.3100 F       1  UNL1       -0.2009
     18 C          61.1690   81.1407   14.2401 C.ar    1  UNL1        0.1332
     19 N          61.7692   82.4993   14.4493 N.ar    1  UNL1       -0.2060
     20 C          63.8175   90.6634   12.2120 C.ar    1  UNL1        0.0840
     21 C          64.4709   91.6274   11.2666 C.ar    1  UNL1        0.0274
     22 C          65.3120   92.7485   11.8011 C.ar    1  UNL1        0.0991
     23 N          65.4997   92.9056   13.2810 N.ar    1  UNL1       -0.2377
     24 C          64.8463   91.9415   14.2264 C.ar    1  UNL1        0.1802
     25 C          64.0052   90.8204   13.6919 C.ar    1  UNL1        0.1660
     26 F          63.3518   89.8564   14.6372 F       1  UNL1       -0.2025
     27 C          65.0340   92.0985   15.7063 C.3     1  UNL1        0.4370
     28 F          65.2218   92.2555   17.1862 F       1  UNL1       -0.1643
     29 F          66.4901   92.3871   15.4910 F       1  UNL1       -0.1643
     30 F          63.5779   91.8099   15.9216 F       1  UNL1       -0.1643
@<TRIPOS>BOND
     1     2     1    1
     2     2     3    1
     3     3     4    1
     4     4     5   ar
     5     5     6   ar
     6     6     7   ar
     7     7     8   ar
     8     8    13    1
     9    13    14   ar
    10    14    15   ar
    11    15    16   ar
    12    16    17    1
    13    16    18   ar
    14    18    19   ar
    15     5     9    1
    16     9    10    1
    17    10    11   am
    18    11    12    2
    19    11    20    1
    20    20    21   ar
    21    21    22   ar
    22    22    23   ar
    23    23    24   ar
    24    24    27    1
    25    27    28    1
    26    27    29    1
    27    27    30    1
    28    24    25   ar
    29    25    26    1
    30    10     2    1
    31    25    20   ar
    32     8     4   ar
    33    19    13   ar
