@<TRIPOS>MOLECULE
*****
 21 24 0 0 0
SMALL
GASTEIGER

@<TRIPOS>ATOM
      1 C          63.2633   85.2178   13.0703 C.ar    1  UNL1        0.0964
      2 N          63.8972   85.8714   14.2623 N.ar    1  UNL1       -0.2267
      3 C          63.9440   87.3493   14.0105 C.ar    1  UNL1        0.1498
      4 C          64.4593   88.4920   14.8342 C.ar    1  UNL1        0.0679
      5 C          64.3696   89.8946   14.3102 C.ar    1  UNL1        0.1551
      6 F          64.8849   91.0375   15.1340 F       1  UNL1       -0.2031
      7 C          63.7647   90.1545   12.9625 C.ar    1  UNL1        0.1026
      8 CL         63.6750   91.5572   12.4385 Cl      1  UNL1       -0.0783
      9 C          63.2494   89.0118   12.1387 C.ar    1  UNL1        0.0948
     10 N          63.3390   87.6092   12.6627 N.ar    1  UNL1       -0.2916
     11 C          62.9184   86.2919   12.0817 C.ar    1  UNL1        0.0600
     12 F          63.3470   80.9615   10.0908 F       1  UNL1       -0.2025
     13 C          63.0594   81.6201   11.4075 C.ar    1  UNL1        0.1593
     14 C          62.5261   80.8091   12.5511 C.ar    1  UNL1        0.1284
     15 N          62.2386   81.4676   13.8677 N.ar    1  UNL1       -0.2399
     16 C          62.4843   82.9372   14.0408 C.ar    1  UNL1        0.1005
     17 C          63.0176   83.7482   12.8972 C.ar    1  UNL1        0.0402
     18 C          63.3052   83.0897   11.5806 C.ar    1  UNL1        0.0343
     19 C          62.2671   86.0849   10.7464 C.3     1  UNL1        0.0402
     20 C          61.0359   86.0724    9.8895 C.3     1  UNL1        0.0063
     21 C          62.3700   85.7390    9.2905 C.3     1  UNL1        0.0063
@<TRIPOS>BOND
     1    12    13    1
     2    13    14   ar
     3    14    15   ar
     4    15    16   ar
     5    16    17   ar
     6    17     1    1
     7     1     2   ar
     8     2     3   ar
     9     3     4   ar
    10     4     5   ar
    11     5     6    1
    12     5     7   ar
    13     7     8    1
    14     7     9   ar
    15     9    10   ar
    16    10    11   ar
    17    11    19    1
    18    19    20    1
    19    20    21    1
    20    17    18   ar
    21    18    13   ar
    22    11     1   ar
    23    21    19    1
    24    10     3   ar
@<TRIPOS>MOLECULE
*****
 21 24 0 0 0
SMALL
GASTEIGER

@<TRIPOS>ATOM
      1 C          62.5931   84.6965   12.2756 C.ar    1  UNL1        0.0964
      2 N          61.9157   85.2638   11.0635 N.ar    1  UNL1       -0.2267
      3 C          62.1577   86.7440   11.0473 C.ar    1  UNL1        0.1498
      4 C          61.7319   87.8203   10.0933 C.ar    1  UNL1        0.0679
      5 C          62.1332   89.2442   10.3414 C.ar    1  UNL1        0.1551
      6 F          61.7073   90.3206    9.3874 F       1  UNL1       -0.2031
      7 C          62.9603   89.5917   11.5435 C.ar    1  UNL1        0.1026
      8 CL         63.3615   91.0157   11.7916 Cl      1  UNL1       -0.0783
      9 C          63.3861   88.5154   12.4976 C.ar    1  UNL1        0.0948
     10 N          62.9848   87.0916   12.2495 N.ar    1  UNL1       -0.2916
     11 C          63.2539   85.8261   13.0085 C.ar    1  UNL1        0.0600
     12 F          62.8890   79.6657   11.0092 F       1  UNL1       -0.2025
     13 C          62.7553   80.7376   12.0500 C.ar    1  UNL1        0.1593
     14 C          62.6357   80.3660   13.4983 C.ar    1  UNL1        0.1284
     15 N          62.5019   81.4379   14.5390 N.ar    1  UNL1       -0.2399
     16 C          62.4877   82.8814   14.1314 C.ar    1  UNL1        0.1005
     17 C          62.6073   83.2530   12.6832 C.ar    1  UNL1        0.0402
     18 C          62.7411   82.1811   11.6425 C.ar    1  UNL1        0.0343
     19 C          64.0449   85.7106   14.2778 C.3     1  UNL1        0.0402
     20 C          64.1181   85.7855   15.7742 C.3     1  UNL1        0.0063
     21 C          65.3416   85.4358   14.9799 C.3     1  UNL1        0.0063
@<TRIPOS>BOND
     1    12    13    1
     2    13    14   ar
     3    14    15   ar
     4    15    16   ar
     5    16    17   ar
     6    17     1    1
     7     1     2   ar
     8     2     3   ar
     9     3     4   ar
    10     4     5   ar
    11     5     6    1
    12     5     7   ar
    13     7     8    1
    14     7     9   ar
    15     9    10   ar
    16    10    11   ar
    17    11    19    1
    18    19    20    1
    19    20    21    1
    20    17    18   ar
    21    18    13   ar
    22    11     1   ar
    23    21    19    1
    24    10     3   ar
@<TRIPOS>MOLECULE
*****
 21 24 0 0 0
SMALL
GASTEIGER

@<TRIPOS>ATOM
      1 C          62.7687   86.2750   12.0686 C.ar    1  UNL1        0.0964
      2 N          62.9217   85.5946   13.3966 N.ar    1  UNL1       -0.2267
      3 C          62.9208   84.1132   13.1613 C.ar    1  UNL1        0.1498
      4 C          63.0399   82.9480   14.0984 C.ar    1  UNL1        0.0679
      5 C          63.0055   81.5476   13.5620 C.ar    1  UNL1        0.1551
      6 F          63.1247   80.3824   14.4991 F       1  UNL1       -0.2031
      7 C          62.8519   81.3124   12.0885 C.ar    1  UNL1        0.1026
      8 CL         62.8175   79.9120   11.5521 Cl      1  UNL1       -0.0783
      9 C          62.7328   82.4776   11.1515 C.ar    1  UNL1        0.0948
     10 N          62.7672   83.8780   11.6879 N.ar    1  UNL1       -0.2916
     11 C          62.6732   85.2141   11.0126 C.ar    1  UNL1        0.0600
     12 F          64.2566   91.0829   13.3609 F       1  UNL1       -0.2025
     13 C          63.4637   90.1602   12.4834 C.ar    1  UNL1        0.1593
     14 C          62.6218   90.7187   11.3747 C.ar    1  UNL1        0.1284
     15 N          61.8289   89.7960   10.4973 N.ar    1  UNL1       -0.2399
     16 C          61.8779   88.3148   10.7286 C.ar    1  UNL1        0.1005
     17 C          62.7197   87.7563   11.8373 C.ar    1  UNL1        0.0402
     18 C          63.5126   88.6790   12.7147 C.ar    1  UNL1        0.0343
     19 C          62.5120   85.4481    9.5397 C.3     1  UNL1        0.0402
     20 C          61.6414   85.7852    8.3656 C.3     1  UNL1        0.0063
     21 C          63.1031   85.5164    8.1629 C.3     1  UNL1        0.0063
@<TRIPOS>BOND
     1    12    13    1
     2    13    14   ar
     3    14    15   ar
     4    15    16   ar
     5    16    17   ar
     6    17     1    1
     7     1     2   ar
     8     2     3   ar
     9     3     4   ar
    10     4     5   ar
    11     5     6    1
    12     5     7   ar
    13     7     8    1
    14     7     9   ar
    15     9    10   ar
    16    10    11   ar
    17    11    19    1
    18    19    20    1
    19    20    21    1
    20    17    18   ar
    21    18    13   ar
    22    11     1   ar
    23    21    19    1
    24    10     3   ar
@<TRIPOS>MOLECULE
*****
 21 24 0 0 0
SMALL
GASTEIGER

@<TRIPOS>ATOM
      1 C          62.6130   84.7373   11.9553 C.ar    1  UNL1        0.0964
      2 N          61.8193   85.0132   10.7128 N.ar    1  UNL1       -0.2267
      3 C          61.7868   86.4982   10.5037 C.ar    1  UNL1        0.1498
      4 C          61.1527   87.3488    9.4433 C.ar    1  UNL1        0.0679
      5 C          61.2922   88.8413    9.4963 C.ar    1  UNL1        0.1551
      6 F          60.6581   89.6920    8.4359 F       1  UNL1       -0.2031
      7 C          62.0659   89.4832   10.6096 C.ar    1  UNL1        0.1026
      8 CL         62.2054   90.9758   10.6625 Cl      1  UNL1       -0.0783
      9 C          62.7000   88.6326   11.6699 C.ar    1  UNL1        0.0948
     10 N          62.5605   87.1401   11.6169 N.ar    1  UNL1       -0.2916
     11 C          63.0711   86.0518   12.5141 C.ar    1  UNL1        0.0600
     12 F          61.0388   80.5565   14.6093 F       1  UNL1       -0.2025
     13 C          62.1115   81.2941   13.8639 C.ar    1  UNL1        0.1593
     14 C          63.4696   80.6787   13.7002 C.ar    1  UNL1        0.1284
     15 N          64.5422   81.4163   12.9549 N.ar    1  UNL1       -0.2399
     16 C          64.2567   82.7691   12.3732 C.ar    1  UNL1        0.1005
     17 C          62.8986   83.3844   12.5370 C.ar    1  UNL1        0.0402
     18 C          61.8260   82.6469   13.2823 C.ar    1  UNL1        0.0343
     19 C          63.8951   86.2443   13.7526 C.3     1  UNL1        0.0402
     20 C          64.7144   85.6697   14.8701 C.3     1  UNL1        0.0063
     21 C          64.5032   87.1520   14.7803 C.3     1  UNL1        0.0063
@<TRIPOS>BOND
     1    12    13    1
     2    13    14   ar
     3    14    15   ar
     4    15    16   ar
     5    16    17   ar
     6    17     1    1
     7     1     2   ar
     8     2     3   ar
     9     3     4   ar
    10     4     5   ar
    11     5     6    1
    12     5     7   ar
    13     7     8    1
    14     7     9   ar
    15     9    10   ar
    16    10    11   ar
    17    11    19    1
    18    19    20    1
    19    20    21    1
    20    17    18   ar
    21    18    13   ar
    22    11     1   ar
    23    21    19    1
    24    10     3   ar
@<TRIPOS>MOLECULE
*****
 21 24 0 0 0
SMALL
GASTEIGER

@<TRIPOS>ATOM
      1 C          63.1258   85.6500   12.5514 C.ar    1  UNL1        0.0964
      2 N          63.0996   84.8185   11.3032 N.ar    1  UNL1       -0.2267
      3 C          62.9999   83.3776   11.7081 C.ar    1  UNL1        0.1498
      4 C          62.9367   82.1117   10.9060 C.ar    1  UNL1        0.0679
      5 C          62.8382   80.7868   11.6023 C.ar    1  UNL1        0.1551
      6 F          62.7750   79.5208   10.8001 F       1  UNL1       -0.2031
      7 C          62.8028   80.7278   13.1007 C.ar    1  UNL1        0.1026
      8 CL         62.7043   79.4028   13.7969 Cl      1  UNL1       -0.0783
      9 C          62.8660   81.9937   13.9028 C.ar    1  UNL1        0.0948
     10 N          62.9645   83.3186   13.2065 N.ar    1  UNL1       -0.2916
     11 C          63.0424   84.7230   13.7277 C.ar    1  UNL1        0.0600
     12 F          64.8819   89.9584   14.8654 F       1  UNL1       -0.2025
     13 C          64.0972   89.3001   13.7695 C.ar    1  UNL1        0.1593
     14 C          63.4059   90.1376   12.7348 C.ar    1  UNL1        0.1284
     15 N          62.6213   89.4792   11.6389 N.ar    1  UNL1       -0.2399
     16 C          62.5279   87.9834   11.5778 C.ar    1  UNL1        0.1005
     17 C          63.2192   87.1459   12.6125 C.ar    1  UNL1        0.0402
     18 C          64.0038   87.8042   13.7084 C.ar    1  UNL1        0.0343
     19 C          63.0376   85.1291   15.1717 C.3     1  UNL1        0.0402
     20 C          63.7634   85.6473   16.3778 C.3     1  UNL1        0.0063
     21 C          62.3036   85.3143   16.4666 C.3     1  UNL1        0.0063
@<TRIPOS>BOND
     1    12    13    1
     2    13    14   ar
     3    14    15   ar
     4    15    16   ar
     5    16    17   ar
     6    17     1    1
     7     1     2   ar
     8     2     3   ar
     9     3     4   ar
    10     4     5   ar
    11     5     6    1
    12     5     7   ar
    13     7     8    1
    14     7     9   ar
    15     9    10   ar
    16    10    11   ar
    17    11    19    1
    18    19    20    1
    19    20    21    1
    20    17    18   ar
    21    18    13   ar
    22    11     1   ar
    23    21    19    1
    24    10     3   ar
@<TRIPOS>MOLECULE
*****
 21 24 0 0 0
SMALL
GASTEIGER

@<TRIPOS>ATOM
      1 C          63.3879   85.9632   13.0256 C.ar    1  UNL1        0.0964
      2 N          63.4113   85.2077   11.7300 N.ar    1  UNL1       -0.2267
      3 C          63.1796   83.7574   12.0348 C.ar    1  UNL1        0.1498
      4 C          63.0988   82.5469   11.1527 C.ar    1  UNL1        0.0679
      5 C          62.8515   81.1954   11.7547 C.ar    1  UNL1        0.1551
      6 F          62.7707   79.9848   10.8726 F       1  UNL1       -0.2031
      7 C          62.6850   81.0545   13.2387 C.ar    1  UNL1        0.1026
      8 CL         62.4377   79.7030   13.8407 Cl      1  UNL1       -0.0783
      9 C          62.7658   82.2650   14.1208 C.ar    1  UNL1        0.0948
     10 N          63.0131   83.6165   13.5188 N.ar    1  UNL1       -0.2916
     11 C          63.1418   84.9797   14.1312 C.ar    1  UNL1        0.0600
     12 F          62.6619   90.8087   11.2953 F       1  UNL1       -0.2025
     13 C          63.2144   89.8651   12.3222 C.ar    1  UNL1        0.1593
     14 C          63.9562   90.4007   13.5108 C.ar    1  UNL1        0.1284
     15 N          64.5086   89.4571   14.5376 N.ar    1  UNL1       -0.2399
     16 C          64.3192   87.9780   14.3759 C.ar    1  UNL1        0.1005
     17 C          63.5773   87.4423   13.1874 C.ar    1  UNL1        0.0402
     18 C          63.0249   88.3859   12.1605 C.ar    1  UNL1        0.0343
     19 C          63.0420   85.3027   15.5926 C.3     1  UNL1        0.0402
     20 C          62.2071   85.5703   16.8098 C.3     1  UNL1        0.0063
     21 C          63.7038   85.5947   16.9066 C.3     1  UNL1        0.0063
@<TRIPOS>BOND
     1    12    13    1
     2    13    14   ar
     3    14    15   ar
     4    15    16   ar
     5    16    17   ar
     6    17     1    1
     7     1     2   ar
     8     2     3   ar
     9     3     4   ar
    10     4     5   ar
    11     5     6    1
    12     5     7   ar
    13     7     8    1
    14     7     9   ar
    15     9    10   ar
    16    10    11   ar
    17    11    19    1
    18    19    20    1
    19    20    21    1
    20    17    18   ar
    21    18    13   ar
    22    11     1   ar
    23    21    19    1
    24    10     3   ar
@<TRIPOS>MOLECULE
*****
 21 24 0 0 0
SMALL
GASTEIGER

@<TRIPOS>ATOM
      1 C          62.7513   86.2503   11.7214 C.ar    1  UNL1        0.0964
      2 N          62.3773   85.1334   10.7927 N.ar    1  UNL1       -0.2267
      3 C          62.7067   83.8366   11.4708 C.ar    1  UNL1        0.1498
      4 C          62.5554   82.4094   11.0350 C.ar    1  UNL1        0.0679
      5 C          62.9816   81.2975   11.9472 C.ar    1  UNL1        0.1551
      6 F          62.8302   79.8702   11.5115 F       1  UNL1       -0.2031
      7 C          63.5592   81.6130   13.2951 C.ar    1  UNL1        0.1026
      8 CL         63.9854   80.5010   14.2073 Cl      1  UNL1       -0.0783
      9 C          63.7106   83.0402   13.7309 C.ar    1  UNL1        0.0948
     10 N          63.2843   84.1521   12.8187 N.ar    1  UNL1       -0.2916
     11 C          63.3119   85.6438   12.9736 C.ar    1  UNL1        0.0600
     12 F          63.7881   91.1949   12.9365 F       1  UNL1       -0.2025
     13 C          63.1110   90.1886   12.0539 C.ar    1  UNL1        0.1593
     14 C          62.2753   90.6483   10.8962 C.ar    1  UNL1        0.1284
     15 N          61.5982   89.6421   10.0137 N.ar    1  UNL1       -0.2399
     16 C          61.7569   88.1761   10.2888 C.ar    1  UNL1        0.1005
     17 C          62.5927   87.7163   11.4464 C.ar    1  UNL1        0.0402
     18 C          63.2697   88.7226   12.3289 C.ar    1  UNL1        0.0343
     19 C          63.8122   86.3968   14.1706 C.3     1  UNL1        0.0402
     20 C          63.9888   86.5057   15.6562 C.3     1  UNL1        0.0063
     21 C          64.5022   87.5920   14.7582 C.3     1  UNL1        0.0063
@<TRIPOS>BOND
     1    12    13    1
     2    13    14   ar
     3    14    15   ar
     4    15    16   ar
     5    16    17   ar
     6    17     1    1
     7     1     2   ar
     8     2     3   ar
     9     3     4   ar
    10     4     5   ar
    11     5     6    1
    12     5     7   ar
    13     7     8    1
    14     7     9   ar
    15     9    10   ar
    16    10    11   ar
    17    11    19    1
    18    19    20    1
    19    20    21    1
    20    17    18   ar
    21    18    13   ar
    22    11     1   ar
    23    21    19    1
    24    10     3   ar
@<TRIPOS>MOLECULE
*****
 21 24 0 0 0
SMALL
GASTEIGER

@<TRIPOS>ATOM
      1 C          63.6187   87.1219   13.2035 C.ar    1  UNL1        0.0964
      2 N          64.1458   86.1556   14.2225 N.ar    1  UNL1       -0.2267
      3 C          63.8170   84.7675   13.7587 C.ar    1  UNL1        0.1498
      4 C          64.0883   83.4189   14.3566 C.ar    1  UNL1        0.0679
      5 C          63.6292   82.1786   13.6488 C.ar    1  UNL1        0.1551
      6 F          63.9005   80.8299   14.2467 F       1  UNL1       -0.2031
      7 C          62.8989   82.2871   12.3431 C.ar    1  UNL1        0.1026
      8 CL         62.4399   81.0467   11.6353 Cl      1  UNL1       -0.0783
      9 C          62.6277   83.6357   11.7452 C.ar    1  UNL1        0.0948
     10 N          63.0867   84.8759   12.4530 N.ar    1  UNL1       -0.2916
     11 C          62.9642   86.3310   12.1099 C.ar    1  UNL1        0.0600
     12 F          65.1039   91.4236   15.7115 F       1  UNL1       -0.2025
     13 C          64.4697   90.7675   14.5209 C.ar    1  UNL1        0.1593
     14 C          63.9440   91.6061   13.3939 C.ar    1  UNL1        0.1284
     15 N          63.3098   90.9500   12.2034 N.ar    1  UNL1       -0.2399
     16 C          63.2014   89.4553   12.1399 C.ar    1  UNL1        0.1005
     17 C          63.7272   88.6166   13.2670 C.ar    1  UNL1        0.0402
     18 C          64.3613   89.2727   14.4575 C.ar    1  UNL1        0.0343
     19 C          62.3031   86.8960   10.8877 C.3     1  UNL1        0.0402
     20 C          61.9106   88.0785   10.0522 C.3     1  UNL1        0.0063
     21 C          61.5506   86.6923    9.6062 C.3     1  UNL1        0.0063
@<TRIPOS>BOND
     1    12    13    1
     2    13    14   ar
     3    14    15   ar
     4    15    16   ar
     5    16    17   ar
     6    17     1    1
     7     1     2   ar
     8     2     3   ar
     9     3     4   ar
    10     4     5   ar
    11     5     6    1
    12     5     7   ar
    13     7     8    1
    14     7     9   ar
    15     9    10   ar
    16    10    11   ar
    17    11    19    1
    18    19    20    1
    19    20    21    1
    20    17    18   ar
    21    18    13   ar
    22    11     1   ar
    23    21    19    1
    24    10     3   ar
@<TRIPOS>MOLECULE
*****
 21 24 0 0 0
SMALL
GASTEIGER

@<TRIPOS>ATOM
      1 C          66.2320   92.9878   12.0215 C.ar    1  UNL1        0.0964
      2 N          66.7917   93.3624   13.3618 N.ar    1  UNL1       -0.2267
      3 C          65.9560   92.6979   14.4153 C.ar    1  UNL1        0.1498
      4 C          66.0359   92.7065   15.9132 C.ar    1  UNL1        0.0679
      5 C          65.0396   91.9298   16.7218 C.ar    1  UNL1        0.1551
      6 F          65.1195   91.9384   18.2197 F       1  UNL1       -0.2031
      7 C          63.9633   91.1445   16.0327 C.ar    1  UNL1        0.1026
      8 CL         62.9669   90.3678   16.8414 Cl      1  UNL1       -0.0783
      9 C          63.8833   91.1360   14.5349 C.ar    1  UNL1        0.0948
     10 N          64.8797   91.9127   13.7262 N.ar    1  UNL1       -0.2916
     11 C          65.0503   92.0918   12.2467 C.ar    1  UNL1        0.0600
     12 F          69.2625   92.1627    7.8820 F       1  UNL1       -0.2025
     13 C          68.2764   93.0188    8.6201 C.ar    1  UNL1        0.1593
     14 C          67.8193   94.3182    8.0265 C.ar    1  UNL1        0.1284
     15 N          66.8332   95.1742    8.7645 N.ar    1  UNL1       -0.2399
     16 C          66.3041   94.7307   10.0962 C.ar    1  UNL1        0.1005
     17 C          66.7611   93.4313   10.6898 C.ar    1  UNL1        0.0402
     18 C          67.7473   92.5753    9.9517 C.ar    1  UNL1        0.0343
     19 C          64.1902   91.4820   11.1798 C.3     1  UNL1        0.0402
     20 C          63.3902   90.3244   10.6600 C.3     1  UNL1        0.0063
     21 C          63.5003   91.5832    9.8518 C.3     1  UNL1        0.0063
@<TRIPOS>BOND
     1    12    13    1
     2    13    14   ar
     3    14    15   ar
     4    15    16   ar
     5    16    17   ar
     6    17     1    1
     7     1     2   ar
     8     2     3   ar
     9     3     4   ar
    10     4     5   ar
    11     5     6    1
    12     5     7   ar
    13     7     8    1
    14     7     9   ar
    15     9    10   ar
    16    10    11   ar
    17    11    19    1
    18    19    20    1
    19    20    21    1
    20    17    18   ar
    21    18    13   ar
    22    11     1   ar
    23    21    19    1
    24    10     3   ar
