@<TRIPOS>MOLECULE
*****
 28 30 0 0 0
SMALL
GASTEIGER

@<TRIPOS>ATOM
      1 C          59.1069   88.5425    7.4303 C.3     1  UNL1        0.0518
      2 C          60.0937   88.5024    8.5595 C.ar    1  UNL1        0.0563
      3 N          60.5212   89.7757    9.2273 N.ar    1  UNL1       -0.2524
      4 C          61.5078   89.7357   10.3564 C.ar    1  UNL1        0.0830
      5 C          62.0670   88.4224   10.8176 C.ar    1  UNL1        0.0686
      6 C          61.6395   87.1492   10.1498 C.ar    1  UNL1        0.0048
      7 C          60.6528   87.1893    9.0206 C.ar    1  UNL1        0.0072
      8 C          63.0163   88.6938   11.9469 C.2     1  UNL1        0.2505
      9 O          63.8005   87.6648   12.7061 O.2     1  UNL1       -0.2699
     10 N          63.0439   90.1747   12.1836 N.am    1  UNL1       -0.2700
     11 C          62.1116   90.8187   11.2006 C.3     1  UNL1        0.1397
     12 C          62.1987   85.8359   10.6109 C.ar    1  UNL1        0.0106
     13 C          61.8520   85.3097   11.9721 C.ar    1  UNL1        0.0017
     14 C          62.4111   83.9964   12.4333 C.ar    1  UNL1        0.0114
     15 C          63.3169   83.2094   11.5333 C.ar    1  UNL1        0.0585
     16 CL         63.8760   81.8961   11.9945 Cl      1  UNL1       -0.0822
     17 C          63.6636   83.7356   10.1721 C.ar    1  UNL1        0.0228
     18 C          63.1045   85.0489    9.7109 C.ar    1  UNL1        0.0585
     19 CL         63.4512   85.5751    8.3497 Cl      1  UNL1       -0.0822
     20 C          60.2253   85.9159    8.3527 C.3     1  UNL1        0.0934
     21 N          60.6592   85.6242    6.9468 N.3     1  UNL1       -0.3174
     22 H          60.2342   86.3007    6.3125 H       1  UNL1        0.1192
     23 H          60.3632   84.6830    6.6880 H       1  UNL1        0.1192
     24 C          63.8603   90.8867   13.2211 C.3     1  UNL1        0.1000
     25 C          64.2263   90.1880   14.4970 C.3     1  UNL1        0.0632
     26 C          63.4136   90.4167   15.7369 C.2     1  UNL1        0.0521
     27 O          63.6186   91.6610   16.5492 O.co2   1  UNL1       -0.5491
     28 O          62.3961   89.4011   16.1646 O.co2   1  UNL1       -0.5491
@<TRIPOS>UNITY_ATOM_ATTR
27 1
charge -1
@<TRIPOS>BOND
     1     1     2    1
     2     2     3   ar
     3     3     4   ar
     4     4     5   ar
     5     5     6   ar
     6     6    12    1
     7    12    13   ar
     8    13    14   ar
     9    14    15   ar
    10    15    16    1
    11    15    17   ar
    12    17    18   ar
    13    18    19    1
    14     6     7   ar
    15     7    20    1
    16    20    21    1
    17     5     8    1
    18     8     9    2
    19     8    10   am
    20    10    24    1
    21    24    25    1
    22    25    26    1
    23    26    27   ar
    24    26    28   ar
    25    10    11    1
    26     7     2   ar
    27    11     4    1
    28    18    12   ar
    29    21    22    1
    30    21    23    1
@<TRIPOS>MOLECULE
*****
 28 30 0 0 0
SMALL
GASTEIGER

@<TRIPOS>ATOM
      1 C          66.1643   92.2763   16.5924 C.3     1  UNL1        0.0518
      2 C          65.6132   92.0787   15.2113 C.ar    1  UNL1        0.0563
      3 N          64.5279   91.0708   14.9741 N.ar    1  UNL1       -0.2524
      4 C          63.9767   90.8731   13.5931 C.ar    1  UNL1        0.0830
      5 C          64.5109   91.6833   12.4493 C.ar    1  UNL1        0.0686
      6 C          65.5962   92.6912   12.6865 C.ar    1  UNL1        0.0048
      7 C          66.1473   92.8888   14.0676 C.ar    1  UNL1        0.0072
      8 C          63.7774   91.2717   11.2073 C.2     1  UNL1        0.2505
      9 O          63.9935   91.8272    9.8308 O.2     1  UNL1       -0.2699
     10 N          62.7899   90.2072   11.5835 N.am    1  UNL1       -0.2700
     11 C          62.9131   89.9608   13.0580 C.3     1  UNL1        0.1397
     12 C          66.1304   93.5014   11.5428 C.ar    1  UNL1        0.0106
     13 C          65.4983   94.8167   11.1957 C.ar    1  UNL1        0.0017
     14 C          66.0325   95.6270   10.0520 C.ar    1  UNL1        0.0114
     15 C          67.1987   95.1220    9.2554 C.ar    1  UNL1        0.0585
     16 CL         67.7329   95.9323    8.1117 Cl      1  UNL1       -0.0822
     17 C          67.8309   93.8067    9.6024 C.ar    1  UNL1        0.0228
     18 C          67.2967   92.9964   10.7461 C.ar    1  UNL1        0.0585
     19 CL         67.9288   91.6811   11.0932 Cl      1  UNL1       -0.0822
     20 C          67.2327   93.8968   14.3048 C.3     1  UNL1        0.0934
     21 N          68.6011   93.4421   14.7179 N.3     1  UNL1       -0.3174
     22 H          68.5538   93.0208   15.6456 H       1  UNL1        0.1192
     23 H          69.2331   94.2425   14.7399 H       1  UNL1        0.1192
     24 C          61.8451   89.5111   10.6492 C.3     1  UNL1        0.1000
     25 C          60.4848   90.0879   10.3910 C.3     1  UNL1        0.0632
     26 C          59.5229   90.2779   11.5263 C.2     1  UNL1        0.0521
     27 O          58.6419   91.4911   11.5680 O.co2   1  UNL1       -0.5491
     28 O          59.4422   89.2545   12.6200 O.co2   1  UNL1       -0.5491
@<TRIPOS>UNITY_ATOM_ATTR
27 1
charge -1
@<TRIPOS>BOND
     1     1     2    1
     2     2     3   ar
     3     3     4   ar
     4     4     5   ar
     5     5     6   ar
     6     6    12    1
     7    12    13   ar
     8    13    14   ar
     9    14    15   ar
    10    15    16    1
    11    15    17   ar
    12    17    18   ar
    13    18    19    1
    14     6     7   ar
    15     7    20    1
    16    20    21    1
    17     5     8    1
    18     8     9    2
    19     8    10   am
    20    10    24    1
    21    24    25    1
    22    25    26    1
    23    26    27   ar
    24    26    28   ar
    25    10    11    1
    26     7     2   ar
    27    11     4    1
    28    18    12   ar
    29    21    22    1
    30    21    23    1
@<TRIPOS>MOLECULE
*****
 28 30 0 0 0
SMALL
GASTEIGER

@<TRIPOS>ATOM
      1 C          59.1105   88.5182    7.4395 C.3     1  UNL1        0.0518
      2 C          60.0985   88.4944    8.5680 C.ar    1  UNL1        0.0563
      3 N          60.5343   89.7779    9.2104 N.ar    1  UNL1       -0.2524
      4 C          61.5222   89.7541   10.3388 C.ar    1  UNL1        0.0830
      5 C          62.0743   88.4469   10.8249 C.ar    1  UNL1        0.0686
      6 C          61.6385   87.1634   10.1826 C.ar    1  UNL1        0.0048
      7 C          60.6505   87.1872    9.0541 C.ar    1  UNL1        0.0072
      8 C          63.0267   88.7346   11.9475 C.2     1  UNL1        0.2505
      9 O          63.8058   87.7160   12.7257 O.2     1  UNL1       -0.2699
     10 N          63.0632   90.2197   12.1552 N.am    1  UNL1       -0.2700
     11 C          62.1334   90.8498   11.1610 C.3     1  UNL1        0.1397
     12 C          62.1906   85.8560   10.6686 C.ar    1  UNL1        0.0106
     13 C          61.8603   85.3691   12.0484 C.ar    1  UNL1        0.0017
     14 C          62.4123   84.0618   12.5345 C.ar    1  UNL1        0.0114
     15 C          63.2945   83.2415   11.6408 C.ar    1  UNL1        0.0585
     16 CL         63.8465   81.9342   12.1269 Cl      1  UNL1       -0.0822
     17 C          63.6248   83.7285   10.2610 C.ar    1  UNL1        0.0228
     18 C          63.0728   85.0358    9.7749 C.ar    1  UNL1        0.0585
     19 CL         63.4031   85.5228    8.3952 Cl      1  UNL1       -0.0822
     20 C          60.2147   85.9036    8.4116 C.3     1  UNL1        0.0934
     21 N          60.5733   85.6204    6.9829 N.3     1  UNL1       -0.3174
     22 H          60.0969   86.2862    6.3744 H       1  UNL1        0.1192
     23 H          60.2847   84.6723    6.7415 H       1  UNL1        0.1192
     24 C          63.8852   90.9470   13.1776 C.3     1  UNL1        0.1000
     25 C          64.8957   91.9658   12.7407 C.3     1  UNL1        0.0632
     26 C          65.9593   92.4239   13.6942 C.2     1  UNL1        0.0521
     27 O          65.6034   92.7506   15.1143 O.co2   1  UNL1       -0.5491
     28 O          67.3788   92.5554   13.2276 O.co2   1  UNL1       -0.5491
@<TRIPOS>UNITY_ATOM_ATTR
27 1
charge -1
@<TRIPOS>BOND
     1     1     2    1
     2     2     3   ar
     3     3     4   ar
     4     4     5   ar
     5     5     6   ar
     6     6    12    1
     7    12    13   ar
     8    13    14   ar
     9    14    15   ar
    10    15    16    1
    11    15    17   ar
    12    17    18   ar
    13    18    19    1
    14     6     7   ar
    15     7    20    1
    16    20    21    1
    17     5     8    1
    18     8     9    2
    19     8    10   am
    20    10    24    1
    21    24    25    1
    22    25    26    1
    23    26    27   ar
    24    26    28   ar
    25    10    11    1
    26     7     2   ar
    27    11     4    1
    28    18    12   ar
    29    21    22    1
    30    21    23    1
@<TRIPOS>MOLECULE
*****
 28 30 0 0 0
SMALL
GASTEIGER

@<TRIPOS>ATOM
      1 C          67.0239   93.0924   12.5570 C.3     1  UNL1        0.0518
      2 C          65.8245   92.2007   12.4291 C.ar    1  UNL1        0.0563
      3 N          64.9345   92.3089   11.2265 N.ar    1  UNL1       -0.2524
      4 C          63.7351   91.4173   11.0985 C.ar    1  UNL1        0.0830
      5 C          63.4256   90.4175   12.1731 C.ar    1  UNL1        0.0686
      6 C          64.3156   90.3094   13.3757 C.ar    1  UNL1        0.0048
      7 C          65.5151   91.2010   13.5036 C.ar    1  UNL1        0.0072
      8 C          62.1827   89.6783   11.7746 C.2     1  UNL1        0.2505
      9 O          61.5157   88.5877   12.5592 O.2     1  UNL1       -0.2699
     10 N          61.7240   90.2213   10.4537 N.am    1  UNL1       -0.2700
     11 C          62.6834   91.2960   10.0358 C.3     1  UNL1        0.1397
     12 C          64.0062   89.3096   14.4503 C.ar    1  UNL1        0.0106
     13 C          64.2727   87.8519   14.2177 C.ar    1  UNL1        0.0017
     14 C          63.9634   86.8521   15.2923 C.ar    1  UNL1        0.0114
     15 C          63.3876   87.3100   16.5994 C.ar    1  UNL1        0.0585
     16 CL         63.0783   86.3102   17.6740 Cl      1  UNL1       -0.0822
     17 C          63.1211   88.7677   16.8320 C.ar    1  UNL1        0.0228
     18 C          63.4304   89.7675   15.7575 C.ar    1  UNL1        0.0585
     19 CL         63.1640   91.2252   15.9901 Cl      1  UNL1       -0.0822
     20 C          66.4051   91.0929   14.7063 C.3     1  UNL1        0.0934
     21 N          66.4341   92.1984   15.7197 N.3     1  UNL1       -0.3174
     22 H          66.8236   93.0396   15.2942 H       1  UNL1        0.1192
     23 H          67.0130   91.9186   16.5116 H       1  UNL1        0.1192
     24 C          60.5177   89.7689    9.6855 C.3     1  UNL1        0.1000
     25 C          60.5415   88.4591    8.9548 C.3     1  UNL1        0.0632
     26 C          59.5039   88.1626    7.9129 C.2     1  UNL1        0.0521
     27 O          58.6411   86.9422    8.0396 O.co2   1  UNL1       -0.5491
     28 O          59.3292   89.0866    6.7443 O.co2   1  UNL1       -0.5491
@<TRIPOS>UNITY_ATOM_ATTR
27 1
charge -1
@<TRIPOS>BOND
     1     1     2    1
     2     2     3   ar
     3     3     4   ar
     4     4     5   ar
     5     5     6   ar
     6     6    12    1
     7    12    13   ar
     8    13    14   ar
     9    14    15   ar
    10    15    16    1
    11    15    17   ar
    12    17    18   ar
    13    18    19    1
    14     6     7   ar
    15     7    20    1
    16    20    21    1
    17     5     8    1
    18     8     9    2
    19     8    10   am
    20    10    24    1
    21    24    25    1
    22    25    26    1
    23    26    27   ar
    24    26    28   ar
    25    10    11    1
    26     7     2   ar
    27    11     4    1
    28    18    12   ar
    29    21    22    1
    30    21    23    1
@<TRIPOS>MOLECULE
*****
 28 30 0 0 0
SMALL
GASTEIGER

@<TRIPOS>ATOM
      1 C          64.7060   89.2767   14.8527 C.3     1  UNL1        0.0518
      2 C          64.0243   88.4153   13.8312 C.ar    1  UNL1        0.0563
      3 N          63.3542   89.0450   12.6461 N.ar    1  UNL1       -0.2524
      4 C          62.6725   88.1837   11.6246 C.ar    1  UNL1        0.0830
      5 C          62.6609   86.6927   11.7882 C.ar    1  UNL1        0.0686
      6 C          63.3310   86.0630   12.9733 C.ar    1  UNL1        0.0048
      7 C          64.0127   86.9244   13.9948 C.ar    1  UNL1        0.0072
      8 C          61.9150   86.1048   10.6272 C.2     1  UNL1        0.2505
      9 O          61.6628   84.6454   10.3891 O.2     1  UNL1       -0.2699
     10 N          61.4656   87.2324    9.7461 N.am    1  UNL1       -0.2700
     11 C          61.9337   88.5173   10.3625 C.3     1  UNL1        0.1397
     12 C          63.3194   84.5719   13.1369 C.ar    1  UNL1        0.0106
     13 C          64.1823   83.7145   12.2593 C.ar    1  UNL1        0.0017
     14 C          64.1708   82.2235   12.4229 C.ar    1  UNL1        0.0114
     15 C          63.2964   81.5900   13.4641 C.ar    1  UNL1        0.0585
     16 CL         63.2849   80.0990   13.6277 Cl      1  UNL1       -0.0822
     17 C          62.4336   82.4475   14.3418 C.ar    1  UNL1        0.0228
     18 C          62.4451   83.9385   14.1782 C.ar    1  UNL1        0.0585
     19 CL         61.5822   84.7960   15.0558 Cl      1  UNL1       -0.0822
     20 C          64.6829   86.2946   15.1799 C.3     1  UNL1        0.0934
     21 N          65.9536   85.5186   14.9983 N.3     1  UNL1       -0.3174
     22 H          65.7654   84.6829   14.4446 H       1  UNL1        0.1192
     23 H          66.3193   85.2466   15.9108 H       1  UNL1        0.1192
     24 C          60.6851   87.0987    8.4721 C.3     1  UNL1        0.1000
     25 C          60.3995   85.7391    7.9067 C.3     1  UNL1        0.0632
     26 C          61.4288   85.0460    7.0638 C.2     1  UNL1        0.0521
     27 O          61.0040   84.2448    5.8690 O.co2   1  UNL1       -0.5491
     28 O          62.8829   85.1543    7.4158 O.co2   1  UNL1       -0.5491
@<TRIPOS>UNITY_ATOM_ATTR
27 1
charge -1
@<TRIPOS>BOND
     1     1     2    1
     2     2     3   ar
     3     3     4   ar
     4     4     5   ar
     5     5     6   ar
     6     6    12    1
     7    12    13   ar
     8    13    14   ar
     9    14    15   ar
    10    15    16    1
    11    15    17   ar
    12    17    18   ar
    13    18    19    1
    14     6     7   ar
    15     7    20    1
    16    20    21    1
    17     5     8    1
    18     8     9    2
    19     8    10   am
    20    10    24    1
    21    24    25    1
    22    25    26    1
    23    26    27   ar
    24    26    28   ar
    25    10    11    1
    26     7     2   ar
    27    11     4    1
    28    18    12   ar
    29    21    22    1
    30    21    23    1
@<TRIPOS>MOLECULE
*****
 28 30 0 0 0
SMALL
GASTEIGER

@<TRIPOS>ATOM
      1 C          64.6134   88.7328   14.8578 C.3     1  UNL1        0.0518
      2 C          63.9527   87.8829   13.8131 C.ar    1  UNL1        0.0563
      3 N          63.4057   88.5153   12.5678 N.ar    1  UNL1       -0.2524
      4 C          62.7450   87.6655   11.5231 C.ar    1  UNL1        0.0830
      5 C          62.6314   86.1833   11.7238 C.ar    1  UNL1        0.0686
      6 C          63.1784   85.5509   12.9691 C.ar    1  UNL1        0.0048
      7 C          63.8391   86.4008   14.0138 C.ar    1  UNL1        0.0072
      8 C          61.9331   85.6059   10.5284 C.2     1  UNL1        0.2505
      9 O          61.6096   84.1574   10.3107 O.2     1  UNL1       -0.2699
     10 N          61.6153   86.7312    9.5889 N.am    1  UNL1       -0.2700
     11 C          62.1170   88.0041   10.2037 C.3     1  UNL1        0.1397
     12 C          63.0648   84.0687   13.1698 C.ar    1  UNL1        0.0106
     13 C          62.1122   83.5211   14.1909 C.ar    1  UNL1        0.0017
     14 C          61.9985   82.0389   14.3917 C.ar    1  UNL1        0.0114
     15 C          62.8375   81.1045   13.5714 C.ar    1  UNL1        0.0585
     16 CL         62.7238   79.6223   13.7722 Cl      1  UNL1       -0.0822
     17 C          63.7900   81.6521   12.5503 C.ar    1  UNL1        0.0228
     18 C          63.9037   83.1343   12.3495 C.ar    1  UNL1        0.0585
     19 CL         64.8563   83.6819   11.3284 Cl      1  UNL1       -0.0822
     20 C          64.3861   85.7684   15.2592 C.3     1  UNL1        0.0934
     21 N          63.5828   85.7888   16.5258 N.3     1  UNL1       -0.3174
     22 H          63.4856   86.7505   16.8513 H       1  UNL1        0.1192
     23 H          64.0578   85.2349   17.2386 H       1  UNL1        0.1192
     24 C          60.9180   86.6057    8.2668 C.3     1  UNL1        0.1000
     25 C          59.5949   87.2783    8.0498 C.3     1  UNL1        0.0632
     26 C          59.5374   88.7553    7.7947 C.2     1  UNL1        0.0521
     27 O          59.8074   89.7204    8.9108 O.co2   1  UNL1       -0.5491
     28 O          59.2099   89.2674    6.4233 O.co2   1  UNL1       -0.5491
@<TRIPOS>UNITY_ATOM_ATTR
27 1
charge -1
@<TRIPOS>BOND
     1     1     2    1
     2     2     3   ar
     3     3     4   ar
     4     4     5   ar
     5     5     6   ar
     6     6    12    1
     7    12    13   ar
     8    13    14   ar
     9    14    15   ar
    10    15    16    1
    11    15    17   ar
    12    17    18   ar
    13    18    19    1
    14     6     7   ar
    15     7    20    1
    16    20    21    1
    17     5     8    1
    18     8     9    2
    19     8    10   am
    20    10    24    1
    21    24    25    1
    22    25    26    1
    23    26    27   ar
    24    26    28   ar
    25    10    11    1
    26     7     2   ar
    27    11     4    1
    28    18    12   ar
    29    21    22    1
    30    21    23    1
@<TRIPOS>MOLECULE
*****
 28 30 0 0 0
SMALL
GASTEIGER

@<TRIPOS>ATOM
      1 C          66.7409   92.1958   16.5949 C.3     1  UNL1        0.0518
      2 C          66.0527   91.9948   15.2772 C.ar    1  UNL1        0.0563
      3 N          64.7320   91.2860   15.2214 N.ar    1  UNL1       -0.2524
      4 C          64.0438   91.0850   13.9038 C.ar    1  UNL1        0.0830
      5 C          64.6764   91.5929   12.6421 C.ar    1  UNL1        0.0686
      6 C          65.9972   92.3017   12.6979 C.ar    1  UNL1        0.0048
      7 C          66.6853   92.5027   14.0156 C.ar    1  UNL1        0.0072
      8 C          63.7688   91.2502   11.4980 C.2     1  UNL1        0.2505
      9 O          64.0121   91.5709   10.0530 O.2     1  UNL1       -0.2699
     10 N          62.5753   90.5306   12.0527 N.am    1  UNL1       -0.2700
     11 C          62.7452   90.4285   13.5395 C.3     1  UNL1        0.1397
     12 C          66.6298   92.8096   11.4362 C.ar    1  UNL1        0.0106
     13 C          67.4268   91.8798   10.5700 C.ar    1  UNL1        0.0017
     14 C          68.0595   92.3876    9.3083 C.ar    1  UNL1        0.0114
     15 C          67.8952   93.8252    8.9129 C.ar    1  UNL1        0.0585
     16 CL         68.5279   94.3329    7.6513 Cl      1  UNL1       -0.0822
     17 C          67.0983   94.7549    9.7792 C.ar    1  UNL1        0.0228
     18 C          66.4655   94.2471   11.0409 C.ar    1  UNL1        0.0585
     19 CL         65.6686   95.1769   11.9071 Cl      1  UNL1       -0.0822
     20 C          68.0062   93.2115   14.0715 C.3     1  UNL1        0.0934
     21 N          69.2780   92.4216   14.1622 N.3     1  UNL1       -0.3174
     22 H          69.3101   91.9302   15.0555 H       1  UNL1        0.1192
     23 H          70.0761   93.0529   14.0926 H       1  UNL1        0.1192
     24 C          61.4154   90.0054   11.2597 C.3     1  UNL1        0.1000
     25 C          61.6553   89.0849   10.0999 C.3     1  UNL1        0.0632
     26 C          62.1375   87.6850   10.3406 C.2     1  UNL1        0.0521
     27 O          62.4293   87.2220   11.7372 O.co2   1  UNL1       -0.5491
     28 O          62.3280   86.7483    9.1847 O.co2   1  UNL1       -0.5491
@<TRIPOS>UNITY_ATOM_ATTR
27 1
charge -1
@<TRIPOS>BOND
     1     1     2    1
     2     2     3   ar
     3     3     4   ar
     4     4     5   ar
     5     5     6   ar
     6     6    12    1
     7    12    13   ar
     8    13    14   ar
     9    14    15   ar
    10    15    16    1
    11    15    17   ar
    12    17    18   ar
    13    18    19    1
    14     6     7   ar
    15     7    20    1
    16    20    21    1
    17     5     8    1
    18     8     9    2
    19     8    10   am
    20    10    24    1
    21    24    25    1
    22    25    26    1
    23    26    27   ar
    24    26    28   ar
    25    10    11    1
    26     7     2   ar
    27    11     4    1
    28    18    12   ar
    29    21    22    1
    30    21    23    1
@<TRIPOS>MOLECULE
*****
 28 30 0 0 0
SMALL
GASTEIGER

@<TRIPOS>ATOM
      1 C          63.4808   92.9786    2.2444 C.3     1  UNL1        0.0518
      2 C          62.9647   93.2460    0.8615 C.ar    1  UNL1        0.0563
      3 N          63.9260   93.4296   -0.2752 N.ar    1  UNL1       -0.2524
      4 C          63.4100   93.6969   -1.6581 C.ar    1  UNL1        0.0830
      5 C          61.9327   93.7807   -1.9042 C.ar    1  UNL1        0.0686
      6 C          60.9714   93.5970   -0.7675 C.ar    1  UNL1        0.0048
      7 C          61.4875   93.3297    0.6154 C.ar    1  UNL1        0.0072
      8 C          61.7207   94.0541   -3.3637 C.2     1  UNL1        0.2505
      9 O          60.3951   94.2142   -4.0473 O.2     1  UNL1       -0.2699
     10 N          63.0670   94.1395   -4.0196 N.am    1  UNL1       -0.2700
     11 C          64.1111   93.9187   -2.9655 C.3     1  UNL1        0.1397
     12 C          59.4941   93.6807   -1.0135 C.ar    1  UNL1        0.0106
     13 C          58.7256   92.4489   -1.3905 C.ar    1  UNL1        0.0017
     14 C          57.2483   92.5325   -1.6366 C.ar    1  UNL1        0.0114
     15 C          56.5395   93.8480   -1.5056 C.ar    1  UNL1        0.0585
     16 CL         55.0622   93.9316   -1.7517 Cl      1  UNL1       -0.0822
     17 C          57.3080   95.0798   -1.1286 C.ar    1  UNL1        0.0228
     18 C          58.7853   94.9962   -0.8825 C.ar    1  UNL1        0.0585
     19 CL         59.5537   96.2280   -0.5055 Cl      1  UNL1       -0.0822
     20 C          60.5261   93.1460    1.7522 C.3     1  UNL1        0.0934
     21 N          60.1214   94.3228    2.5896 N.3     1  UNL1       -0.3174
     22 H          60.9311   94.6680    3.1050 H       1  UNL1        0.1192
     23 H          59.3956   94.0384    3.2476 H       1  UNL1        0.1192
     24 C          63.3241   94.3998   -5.4743 C.3     1  UNL1        0.1000
     25 C          63.4725   93.2509   -6.4271 C.3     1  UNL1        0.0632
     26 C          64.7547   92.4736   -6.4708 C.2     1  UNL1        0.0521
     27 O          66.0532   93.1498   -6.1444 O.co2   1  UNL1       -0.5491
     28 O          64.7383   91.0201   -6.8410 O.co2   1  UNL1       -0.5491
@<TRIPOS>UNITY_ATOM_ATTR
27 1
charge -1
@<TRIPOS>BOND
     1     1     2    1
     2     2     3   ar
     3     3     4   ar
     4     4     5   ar
     5     5     6   ar
     6     6    12    1
     7    12    13   ar
     8    13    14   ar
     9    14    15   ar
    10    15    16    1
    11    15    17   ar
    12    17    18   ar
    13    18    19    1
    14     6     7   ar
    15     7    20    1
    16    20    21    1
    17     5     8    1
    18     8     9    2
    19     8    10   am
    20    10    24    1
    21    24    25    1
    22    25    26    1
    23    26    27   ar
    24    26    28   ar
    25    10    11    1
    26     7     2   ar
    27    11     4    1
    28    18    12   ar
    29    21    22    1
    30    21    23    1
@<TRIPOS>MOLECULE
*****
 28 30 0 0 0
SMALL
GASTEIGER

@<TRIPOS>ATOM
      1 C          64.7665   95.7828   -2.9614 C.3     1  UNL1        0.0518
      2 C          63.4255   95.1603   -2.7076 C.ar    1  UNL1        0.0563
      3 N          62.4446   95.0076   -3.8321 N.ar    1  UNL1       -0.2524
      4 C          61.1037   94.3852   -3.5784 C.ar    1  UNL1        0.0830
      5 C          60.7435   93.9154   -2.2001 C.ar    1  UNL1        0.0686
      6 C          61.7244   94.0681   -1.0756 C.ar    1  UNL1        0.0048
      7 C          63.0654   94.6905   -1.3294 C.ar    1  UNL1        0.0072
      8 C          59.3574   93.3446   -2.2524 C.2     1  UNL1        0.2505
      9 O          58.6007   92.7596   -1.0969 O.2     1  UNL1       -0.2699
     10 N          58.8608   93.4616   -3.6629 N.am    1  UNL1       -0.2700
     11 C          59.9401   94.1047   -4.4825 C.3     1  UNL1        0.1397
     12 C          61.3643   93.5983    0.3028 C.ar    1  UNL1        0.0106
     13 C          61.9247   92.3091    0.8259 C.ar    1  UNL1        0.0017
     14 C          61.5647   91.8392    2.2042 C.ar    1  UNL1        0.0114
     15 C          60.6443   92.6588    3.0593 C.ar    1  UNL1        0.0585
     16 CL         60.2843   92.1889    4.4376 Cl      1  UNL1       -0.0822
     17 C          60.0839   93.9480    2.5361 C.ar    1  UNL1        0.0228
     18 C          60.4439   94.4178    1.1578 C.ar    1  UNL1        0.0585
     19 CL         59.8835   95.7071    0.6347 Cl      1  UNL1       -0.0822
     20 C          64.0463   94.8432   -0.2048 C.3     1  UNL1        0.0934
     21 N          65.0997   93.7991    0.0186 N.3     1  UNL1       -0.3174
     22 H          64.6568   92.9232    0.2961 H       1  UNL1        0.1192
     23 H          65.7338   94.1079    0.7555 H       1  UNL1        0.1192
     24 C          57.5203   93.0141   -4.1657 C.3     1  UNL1        0.1000
     25 C          57.1466   91.5623   -4.1147 C.3     1  UNL1        0.0632
     26 C          56.0350   91.1052   -3.2171 C.2     1  UNL1        0.0521
     27 O          55.6142   91.9526   -2.0531 O.co2   1  UNL1       -0.5491
     28 O          55.3444   89.8006   -3.4836 O.co2   1  UNL1       -0.5491
@<TRIPOS>UNITY_ATOM_ATTR
27 1
charge -1
@<TRIPOS>BOND
     1     1     2    1
     2     2     3   ar
     3     3     4   ar
     4     4     5   ar
     5     5     6   ar
     6     6    12    1
     7    12    13   ar
     8    13    14   ar
     9    14    15   ar
    10    15    16    1
    11    15    17   ar
    12    17    18   ar
    13    18    19    1
    14     6     7   ar
    15     7    20    1
    16    20    21    1
    17     5     8    1
    18     8     9    2
    19     8    10   am
    20    10    24    1
    21    24    25    1
    22    25    26    1
    23    26    27   ar
    24    26    28   ar
    25    10    11    1
    26     7     2   ar
    27    11     4    1
    28    18    12   ar
    29    21    22    1
    30    21    23    1
