@<TRIPOS>MOLECULE
*****
 37 40 0 0 0
SMALL
GASTEIGER

@<TRIPOS>ATOM
      1 C          63.9777   89.9780   13.8754 C.ar    1  UNL1        0.0852
      2 C          65.0866   90.7431   13.2160 C.ar    1  UNL1        0.0221
      3 C          65.9246   91.6923   14.0203 C.ar    1  UNL1        0.0508
      4 C          67.0334   92.4574   13.3609 C.ar    1  UNL1        0.1353
      5 N          67.8714   93.4065   14.1652 N.ar    1  UNL1       -0.2089
      6 C          67.6005   93.5904   15.6289 C.ar    1  UNL1        0.2000
      7 N          66.4917   92.8253   16.2884 N.ar    1  UNL1       -0.2238
      8 C          65.6537   91.8762   15.4841 C.ar    1  UNL1        0.0888
      9 C          64.5448   91.1111   16.1436 C.ar    1  UNL1        0.0574
     10 C          63.7068   90.1620   15.3393 C.ar    1  UNL1        0.1533
     11 C          62.2739   89.5482   11.9618 C.2     1  UNL1        0.2769
     12 O          62.2460   91.0165   11.6567 O.2     1  UNL1       -0.2674
     13 N          63.1397   89.0289   13.0711 N.am    1  UNL1       -0.2762
     14 H          63.1579   88.0651   13.2714 H       1  UNL1        0.1553
     15 C          61.9898   87.9852    9.9059 C.2     1  UNL1        0.0256
     16 C          61.4358   88.5990   11.1574 C.2     1  UNL1        0.1905
     17 F          60.0439   88.2636   11.6047 F       1  UNL1       -0.1997
     18 C          61.1519   87.0361    9.1016 C.3     1  UNL1        0.1014
     19 C          59.8819   89.0336    8.0304 C.3     1  UNL1        0.0899
     20 N          60.0246   87.5583    8.2610 N.3     1  UNL1       -0.2665
     21 C          59.0400   86.6053    7.6510 C.3     1  UNL1        0.0899
     22 N          67.3043   92.2734   11.8970 N.pl3   1  UNL1       -0.2978
     23 H          67.6319   91.4076   11.5620 H       1  UNL1        0.1536
     24 C          67.0760   93.4087   10.9435 C.ar    1  UNL1        0.0504
     25 C          67.7180   93.3903    9.5880 C.ar    1  UNL1        0.0170
     26 C          67.4897   94.5256    8.6346 C.ar    1  UNL1        0.0318
     27 C          66.6195   95.6793    9.0367 C.ar    1  UNL1        0.1507
     28 F          66.3912   96.8146    8.0833 F       1  UNL1       -0.2033
     29 C          65.9774   95.6977   10.3923 C.ar    1  UNL1        0.0863
     30 CL         65.1072   96.8513   10.7944 Cl      1  UNL1       -0.0799
     31 C          66.2057   94.5624   11.3457 C.ar    1  UNL1        0.0283
     32 O          62.5979   89.3968   15.9988 O.3     1  UNL1       -0.4752
     33 C          62.8318   87.9911   16.4670 C.3     1  UNL1        0.1979
     34 C          63.6977   86.9694   15.7915 C.3     1  UNL1        0.0782
     35 C          63.6419   85.7071   16.5998 C.3     1  UNL1        0.1461
     36 O          62.7414   85.9487   17.7750 O.3     1  UNL1       -0.3498
     37 C          62.2408   87.3603   17.6928 C.3     1  UNL1        0.1855
@<TRIPOS>BOND
     1    19    20    1
     2    20    21    1
     3    20    18    1
     4    18    15    1
     5    15    16    2
     6    16    17    1
     7    16    11    1
     8    11    12    2
     9    11    13   am
    10    13     1    1
    11     1     2   ar
    12     2     3   ar
    13     3     4   ar
    14     4    22    1
    15    22    24    1
    16    24    25   ar
    17    25    26   ar
    18    26    27   ar
    19    27    28    1
    20    27    29   ar
    21    29    30    1
    22    29    31   ar
    23     4     5   ar
    24     5     6   ar
    25     6     7   ar
    26     7     8   ar
    27     8     9   ar
    28     9    10   ar
    29    10    32    1
    30    33    32    1
    31    33    34    1
    32    34    35    1
    33    35    36    1
    34    36    37    1
    35    10     1   ar
    36    37    33    1
    37     8     3   ar
    38    31    24   ar
    39    13    14    1
    40    22    23    1
@<TRIPOS>MOLECULE
*****
 37 40 0 0 0
SMALL
GASTEIGER

@<TRIPOS>ATOM
      1 C          64.5354   90.0211   14.3108 C.ar    1  UNL1        0.0852
      2 C          64.2670   88.5541   14.1500 C.ar    1  UNL1        0.0221
      3 C          63.6888   87.7682   15.2894 C.ar    1  UNL1        0.0508
      4 C          63.4204   86.3012   15.1286 C.ar    1  UNL1        0.1353
      5 N          62.8423   85.5152   16.2679 N.ar    1  UNL1       -0.2089
      6 C          62.5326   86.1963   17.5680 C.ar    1  UNL1        0.2000
      7 N          62.8010   87.6633   17.7288 N.ar    1  UNL1       -0.2238
      8 C          63.3791   88.4492   16.5895 C.ar    1  UNL1        0.0888
      9 C          63.6476   89.9162   16.7503 C.ar    1  UNL1        0.0574
     10 C          64.2257   90.7022   15.6110 C.ar    1  UNL1        0.1533
     11 C          64.2171   91.3230   12.0851 C.2     1  UNL1        0.2769
     12 O          62.7426   91.0529   12.1380 O.2     1  UNL1       -0.2674
     13 N          65.1135   90.8071   13.1716 N.am    1  UNL1       -0.2762
     14 H          66.0813   90.9844   13.1369 H       1  UNL1        0.1553
     15 C          66.2266   92.5554   10.9927 C.2     1  UNL1        0.0256
     16 C          64.7953   92.1090   10.9458 C.2     1  UNL1        0.1905
     17 F          63.9423   92.4485    9.7597 F       1  UNL1       -0.1997
     18 C          66.8048   93.3413    9.8535 C.3     1  UNL1        0.1014
     19 C          67.4878   95.6217    8.8126 C.3     1  UNL1        0.0899
     20 N          66.8542   94.8389    9.9242 N.3     1  UNL1       -0.2665
     21 C          66.2699   95.5535   11.1064 C.3     1  UNL1        0.0899
     22 N          63.7301   85.6201   13.8285 N.pl3   1  UNL1       -0.2978
     23 H          64.2286   86.0998   13.1280 H       1  UNL1        0.1536
     24 C          63.2802   84.2083   13.5956 C.ar    1  UNL1        0.0504
     25 C          62.5870   83.4519   14.6897 C.ar    1  UNL1        0.0170
     26 C          62.1371   82.0400   14.4568 C.ar    1  UNL1        0.0318
     27 C          62.3805   81.3845   13.1298 C.ar    1  UNL1        0.1507
     28 F          61.9306   79.9727   12.8969 F       1  UNL1       -0.2033
     29 C          63.0738   82.1410   12.0355 C.ar    1  UNL1        0.0863
     30 CL         63.3171   81.4855   10.7085 Cl      1  UNL1       -0.0799
     31 C          63.5236   83.5528   12.2684 C.ar    1  UNL1        0.0283
     32 O          64.4941   92.1692   15.7718 O.3     1  UNL1       -0.4752
     33 C          65.8777   92.7066   15.5555 C.3     1  UNL1        0.1979
     34 C          67.0621   92.4772   16.4469 C.3     1  UNL1        0.0782
     35 C          68.2362   93.1966   15.8521 C.3     1  UNL1        0.1461
     36 O          67.7775   93.8706   14.5930 O.3     1  UNL1       -0.3498
     37 C          66.3199   93.5678   14.4097 C.3     1  UNL1        0.1855
@<TRIPOS>BOND
     1    19    20    1
     2    20    21    1
     3    20    18    1
     4    18    15    1
     5    15    16    2
     6    16    17    1
     7    16    11    1
     8    11    12    2
     9    11    13   am
    10    13     1    1
    11     1     2   ar
    12     2     3   ar
    13     3     4   ar
    14     4    22    1
    15    22    24    1
    16    24    25   ar
    17    25    26   ar
    18    26    27   ar
    19    27    28    1
    20    27    29   ar
    21    29    30    1
    22    29    31   ar
    23     4     5   ar
    24     5     6   ar
    25     6     7   ar
    26     7     8   ar
    27     8     9   ar
    28     9    10   ar
    29    10    32    1
    30    33    32    1
    31    33    34    1
    32    34    35    1
    33    35    36    1
    34    36    37    1
    35    10     1   ar
    36    37    33    1
    37     8     3   ar
    38    31    24   ar
    39    13    14    1
    40    22    23    1
@<TRIPOS>MOLECULE
*****
 37 40 0 0 0
SMALL
GASTEIGER

@<TRIPOS>ATOM
      1 C          63.7520   90.0393   12.1644 C.ar    1  UNL1        0.0852
      2 C          63.3923   88.6006   12.3894 C.ar    1  UNL1        0.0221
      3 C          62.5275   87.8798   11.3980 C.ar    1  UNL1        0.0508
      4 C          62.1678   86.4410   11.6230 C.ar    1  UNL1        0.1353
      5 N          61.3031   85.7203   10.6316 N.ar    1  UNL1       -0.2089
      6 C          60.7982   86.4382    9.4153 C.ar    1  UNL1        0.2000
      7 N          61.1580   87.8769    9.1903 N.ar    1  UNL1       -0.2238
      8 C          62.0226   88.5977   10.1816 C.ar    1  UNL1        0.0888
      9 C          62.3824   90.0365    9.9566 C.ar    1  UNL1        0.0574
     10 C          63.2470   90.7572   10.9479 C.ar    1  UNL1        0.1533
     11 C          64.1552   90.9246   14.5734 C.2     1  UNL1        0.2769
     12 O          62.8291   90.3683   14.9998 O.2     1  UNL1       -0.2674
     13 N          64.6167   90.7601   13.1557 N.am    1  UNL1       -0.2762
     14 H          65.4871   91.1252   12.8758 H       1  UNL1        0.1553
     15 C          66.3994   92.0871   15.1751 C.2     1  UNL1        0.0256
     16 C          65.0199   91.6454   15.5648 C.2     1  UNL1        0.1905
     17 F          64.5052   91.9244   16.9457 F       1  UNL1       -0.1997
     18 C          67.2642   92.8079   16.1663 C.3     1  UNL1        0.1014
     19 C          69.1685   94.5661   16.3452 C.3     1  UNL1        0.0899
     20 N          68.6227   93.2974   15.7603 N.3     1  UNL1       -0.2665
     21 C          69.4353   92.5180   14.7692 C.3     1  UNL1        0.0899
     22 N          62.6728   85.7231   12.8394 N.pl3   1  UNL1       -0.2978
     23 H          63.0396   86.2349   13.5962 H       1  UNL1        0.1536
     24 C          62.6187   84.2254   12.9027 C.ar    1  UNL1        0.0504
     25 C          62.2382   83.5421   14.1826 C.ar    1  UNL1        0.0170
     26 C          62.1841   82.0444   14.2459 C.ar    1  UNL1        0.0318
     27 C          62.5107   81.2300   13.0293 C.ar    1  UNL1        0.1507
     28 F          62.4567   79.7323   13.0926 F       1  UNL1       -0.2033
     29 C          62.8913   81.9133   11.7493 C.ar    1  UNL1        0.0863
     30 CL         63.2179   81.0990   10.5328 Cl      1  UNL1       -0.0799
     31 C          62.9453   83.4110   11.6860 C.ar    1  UNL1        0.0283
     32 O          63.6068   92.1960   10.7229 O.3     1  UNL1       -0.4752
     33 C          65.0393   92.6327   10.8061 C.3     1  UNL1        0.1979
     34 C          66.1752   92.0906    9.9899 C.3     1  UNL1        0.0782
     35 C          67.4254   92.8111   10.3994 C.3     1  UNL1        0.1461
     36 O          67.0623   93.7985   11.4686 O.3     1  UNL1       -0.3498
     37 C          65.5876   93.6882   11.7199 C.3     1  UNL1        0.1855
@<TRIPOS>BOND
     1    19    20    1
     2    20    21    1
     3    20    18    1
     4    18    15    1
     5    15    16    2
     6    16    17    1
     7    16    11    1
     8    11    12    2
     9    11    13   am
    10    13     1    1
    11     1     2   ar
    12     2     3   ar
    13     3     4   ar
    14     4    22    1
    15    22    24    1
    16    24    25   ar
    17    25    26   ar
    18    26    27   ar
    19    27    28    1
    20    27    29   ar
    21    29    30    1
    22    29    31   ar
    23     4     5   ar
    24     5     6   ar
    25     6     7   ar
    26     7     8   ar
    27     8     9   ar
    28     9    10   ar
    29    10    32    1
    30    33    32    1
    31    33    34    1
    32    34    35    1
    33    35    36    1
    34    36    37    1
    35    10     1   ar
    36    37    33    1
    37     8     3   ar
    38    31    24   ar
    39    13    14    1
    40    22    23    1
@<TRIPOS>MOLECULE
*****
 37 40 0 0 0
SMALL
GASTEIGER

@<TRIPOS>ATOM
      1 C          64.4036   91.6198   11.7746 C.ar    1  UNL1        0.0852
      2 C          64.1219   91.3446   13.2220 C.ar    1  UNL1        0.0221
      3 C          65.0145   91.9187   14.2821 C.ar    1  UNL1        0.0508
      4 C          64.7328   91.6435   15.7295 C.ar    1  UNL1        0.1353
      5 N          65.6253   92.2175   16.7896 N.ar    1  UNL1       -0.2089
      6 C          66.7995   93.0667   16.4024 C.ar    1  UNL1        0.2000
      7 N          67.0813   93.3418   14.9550 N.ar    1  UNL1       -0.2238
      8 C          66.1887   92.7678   13.8949 C.ar    1  UNL1        0.0888
      9 C          66.4705   93.0430   12.4475 C.ar    1  UNL1        0.0574
     10 C          65.5779   92.4690   11.3874 C.ar    1  UNL1        0.1533
     11 C          62.6892   89.8253   11.0061 C.2     1  UNL1        0.2769
     12 O          62.7598   89.1789   12.3578 O.2     1  UNL1       -0.2674
     13 N          63.5111   91.0458   10.7145 N.am    1  UNL1       -0.2762
     14 H          63.4648   91.4700    9.8273 H       1  UNL1        0.1553
     15 C          61.8148   87.7775    9.6675 C.2     1  UNL1        0.0256
     16 C          61.7966   89.2513    9.9459 C.2     1  UNL1        0.1905
     17 F          60.8860   90.1511    9.1642 F       1  UNL1       -0.1997
     18 C          60.9223   87.2035    8.6073 C.3     1  UNL1        0.1014
     19 C          60.3361   85.2597    6.9863 C.3     1  UNL1        0.0899
     20 N          61.3078   85.9329    7.9096 N.3     1  UNL1       -0.2665
     21 C          62.6650   85.3354    8.1352 C.3     1  UNL1        0.0899
     22 N          63.5585   90.7943   16.1168 N.pl3   1  UNL1       -0.2978
     23 H          62.7256   91.2178   16.4268 H       1  UNL1        0.1536
     24 C          63.6533   89.2997   16.0317 C.ar    1  UNL1        0.0504
     25 C          64.3786   88.6582   14.8862 C.ar    1  UNL1        0.0170
     26 C          64.4734   87.1636   14.8012 C.ar    1  UNL1        0.0318
     27 C          63.8428   86.3105   15.8616 C.ar    1  UNL1        0.1507
     28 F          63.9376   84.8159   15.7765 F       1  UNL1       -0.2033
     29 C          63.1174   86.9520   17.0072 C.ar    1  UNL1        0.0863
     30 CL         62.4867   86.0990   18.0676 Cl      1  UNL1       -0.0799
     31 C          63.0226   88.4466   17.0922 C.ar    1  UNL1        0.0283
     32 O          65.8597   92.7442    9.9400 O.3     1  UNL1       -0.4752
     33 C          66.4597   94.0560    9.5289 C.3     1  UNL1        0.1979
     34 C          65.9339   95.4155    9.8828 C.3     1  UNL1        0.0782
     35 C          66.8400   96.4384    9.2644 C.3     1  UNL1        0.1461
     36 O          67.9259   95.7110    8.5282 O.3     1  UNL1       -0.3498
     37 C          67.6908   94.2386    8.6917 C.3     1  UNL1        0.1855
@<TRIPOS>BOND
     1    19    20    1
     2    20    21    1
     3    20    18    1
     4    18    15    1
     5    15    16    2
     6    16    17    1
     7    16    11    1
     8    11    12    2
     9    11    13   am
    10    13     1    1
    11     1     2   ar
    12     2     3   ar
    13     3     4   ar
    14     4    22    1
    15    22    24    1
    16    24    25   ar
    17    25    26   ar
    18    26    27   ar
    19    27    28    1
    20    27    29   ar
    21    29    30    1
    22    29    31   ar
    23     4     5   ar
    24     5     6   ar
    25     6     7   ar
    26     7     8   ar
    27     8     9   ar
    28     9    10   ar
    29    10    32    1
    30    33    32    1
    31    33    34    1
    32    34    35    1
    33    35    36    1
    34    36    37    1
    35    10     1   ar
    36    37    33    1
    37     8     3   ar
    38    31    24   ar
    39    13    14    1
    40    22    23    1
@<TRIPOS>MOLECULE
*****
 37 40 0 0 0
SMALL
GASTEIGER

@<TRIPOS>ATOM
      1 C          62.3383   88.5921   10.6801 C.ar    1  UNL1        0.0852
      2 C          62.9379   89.9109   11.0690 C.ar    1  UNL1        0.0221
      3 C          63.6763   90.0452   12.3678 C.ar    1  UNL1        0.0508
      4 C          64.2759   91.3640   12.7568 C.ar    1  UNL1        0.1353
      5 N          65.0143   91.4984   14.0555 N.ar    1  UNL1       -0.2089
      6 C          65.1530   90.3139   14.9653 C.ar    1  UNL1        0.2000
      7 N          64.5534   88.9951   14.5764 N.ar    1  UNL1       -0.2238
      8 C          63.8150   88.8608   13.2777 C.ar    1  UNL1        0.0888
      9 C          63.2154   87.5420   12.8887 C.ar    1  UNL1        0.0574
     10 C          62.4771   87.4076   11.5900 C.ar    1  UNL1        0.1533
     11 C          60.3270   89.2197    9.1600 C.2     1  UNL1        0.2769
     12 O          59.7924   90.1161   10.2374 O.2     1  UNL1       -0.2674
     13 N          61.5999   88.4578    9.3814 N.am    1  UNL1       -0.2762
     14 H          61.9508   87.8694    8.6743 H       1  UNL1        0.1553
     15 C          59.6220   90.2022    6.8605 C.2     1  UNL1        0.0256
     16 C          59.5886   89.0854    7.8612 C.2     1  UNL1        0.1905
     17 F          58.8169   87.8341    7.5632 F       1  UNL1       -0.1997
     18 C          58.8837   90.0679    5.5618 C.3     1  UNL1        0.1014
     19 C          56.8539   91.5318    4.8640 C.3     1  UNL1        0.0899
     20 N          58.3336   91.2867    4.8822 N.3     1  UNL1       -0.2665
     21 C          59.2632   92.2605    4.2208 C.3     1  UNL1        0.0899
     22 N          64.1371   92.5485   11.8469 N.pl3   1  UNL1       -0.2978
     23 H          63.2685   93.0038   11.7605 H       1  UNL1        0.1536
     24 C          65.3218   93.0392   11.0686 C.ar    1  UNL1        0.0504
     25 C          66.4211   92.0887   10.6972 C.ar    1  UNL1        0.0170
     26 C          67.6058   92.5795    9.9189 C.ar    1  UNL1        0.0318
     27 C          67.6912   94.0207    9.5120 C.ar    1  UNL1        0.1507
     28 F          68.8758   94.5114    8.7338 F       1  UNL1       -0.2033
     29 C          66.5918   94.9713    9.8835 C.ar    1  UNL1        0.0863
     30 CL         66.6771   96.4125    9.4766 Cl      1  UNL1       -0.0799
     31 C          65.4071   94.4805   10.6617 C.ar    1  UNL1        0.0283
     32 O          61.8774   86.0888   11.2011 O.3     1  UNL1       -0.4752
     33 C          62.7395   84.8630   11.1361 C.3     1  UNL1        0.1979
     34 C          63.4426   84.3432    9.9173 C.3     1  UNL1        0.0782
     35 C          64.1874   83.1007   10.3063 C.3     1  UNL1        0.1461
     36 O          63.9446   82.8526   11.7656 O.3     1  UNL1       -0.3498
     37 C          63.0497   83.9418   12.2784 C.3     1  UNL1        0.1855
@<TRIPOS>BOND
     1    19    20    1
     2    20    21    1
     3    20    18    1
     4    18    15    1
     5    15    16    2
     6    16    17    1
     7    16    11    1
     8    11    12    2
     9    11    13   am
    10    13     1    1
    11     1     2   ar
    12     2     3   ar
    13     3     4   ar
    14     4    22    1
    15    22    24    1
    16    24    25   ar
    17    25    26   ar
    18    26    27   ar
    19    27    28    1
    20    27    29   ar
    21    29    30    1
    22    29    31   ar
    23     4     5   ar
    24     5     6   ar
    25     6     7   ar
    26     7     8   ar
    27     8     9   ar
    28     9    10   ar
    29    10    32    1
    30    33    32    1
    31    33    34    1
    32    34    35    1
    33    35    36    1
    34    36    37    1
    35    10     1   ar
    36    37    33    1
    37     8     3   ar
    38    31    24   ar
    39    13    14    1
    40    22    23    1
@<TRIPOS>MOLECULE
*****
 37 40 0 0 0
SMALL
GASTEIGER

@<TRIPOS>ATOM
      1 C          63.5268   90.7546   13.8429 C.ar    1  UNL1        0.0852
      2 C          64.3712   91.8882   13.3408 C.ar    1  UNL1        0.0221
      3 C          65.4826   92.4292   14.1908 C.ar    1  UNL1        0.0508
      4 C          66.3269   93.5628   13.6888 C.ar    1  UNL1        0.1353
      5 N          67.4382   94.1038   14.5386 N.ar    1  UNL1       -0.2089
      6 C          67.7051   93.5113   15.8905 C.ar    1  UNL1        0.2000
      7 N          66.8608   92.3777   16.3925 N.ar    1  UNL1       -0.2238
      8 C          65.7495   91.8367   15.5426 C.ar    1  UNL1        0.0888
      9 C          64.9051   90.7031   16.0447 C.ar    1  UNL1        0.0574
     10 C          63.7938   90.1621   15.1948 C.ar    1  UNL1        0.1533
     11 C          62.3511   90.5577   11.5344 C.2     1  UNL1        0.2769
     12 O          63.3980   91.4428   10.9257 O.2     1  UNL1       -0.2674
     13 N          62.4156   90.2136   12.9930 N.am    1  UNL1       -0.2762
     14 H          61.7284   89.6327   13.3925 H       1  UNL1        0.1553
     15 C          61.4959   88.8635    9.7601 C.2     1  UNL1        0.0256
     16 C          61.2398   90.0166   10.6846 C.2     1  UNL1        0.1905
     17 F          59.8724   90.6287   10.7592 F       1  UNL1       -0.1997
     18 C          60.3846   88.3224    8.9103 C.3     1  UNL1        0.1014
     19 C          61.6544   86.0672    8.6836 C.3     1  UNL1        0.0899
     20 N          60.4510   86.9150    8.3957 N.3     1  UNL1       -0.2665
     21 C          59.3139   86.3553    7.5933 C.3     1  UNL1        0.0899
     22 N          66.0600   94.1554   12.3368 N.pl3   1  UNL1       -0.2978
     23 H          65.3770   94.8567   12.2329 H       1  UNL1        0.1536
     24 C          66.8337   93.6793   11.1432 C.ar    1  UNL1        0.0504
     25 C          67.5615   92.3687   11.1952 C.ar    1  UNL1        0.0170
     26 C          68.3352   91.8926   10.0016 C.ar    1  UNL1        0.0318
     27 C          68.3811   92.7270    8.7560 C.ar    1  UNL1        0.1507
     28 F          69.1549   92.2509    7.5624 F       1  UNL1       -0.2033
     29 C          67.6533   94.0377    8.7040 C.ar    1  UNL1        0.0863
     30 CL         67.6993   94.8721    7.4584 Cl      1  UNL1       -0.0799
     31 C          66.8796   94.5138    9.8976 C.ar    1  UNL1        0.0283
     32 O          62.9494   89.0285   15.6968 O.3     1  UNL1       -0.4752
     33 C          63.4920   87.6301   15.6928 C.3     1  UNL1        0.1979
     34 C          64.4057   87.0419   14.6588 C.3     1  UNL1        0.0782
     35 C          64.6946   85.6226   15.0490 C.3     1  UNL1        0.1461
     36 O          63.9594   85.3337   16.3242 O.3     1  UNL1       -0.3498
     37 C          63.2162   86.5744   16.7220 C.3     1  UNL1        0.1855
@<TRIPOS>BOND
     1    19    20    1
     2    20    21    1
     3    20    18    1
     4    18    15    1
     5    15    16    2
     6    16    17    1
     7    16    11    1
     8    11    12    2
     9    11    13   am
    10    13     1    1
    11     1     2   ar
    12     2     3   ar
    13     3     4   ar
    14     4    22    1
    15    22    24    1
    16    24    25   ar
    17    25    26   ar
    18    26    27   ar
    19    27    28    1
    20    27    29   ar
    21    29    30    1
    22    29    31   ar
    23     4     5   ar
    24     5     6   ar
    25     6     7   ar
    26     7     8   ar
    27     8     9   ar
    28     9    10   ar
    29    10    32    1
    30    33    32    1
    31    33    34    1
    32    34    35    1
    33    35    36    1
    34    36    37    1
    35    10     1   ar
    36    37    33    1
    37     8     3   ar
    38    31    24   ar
    39    13    14    1
    40    22    23    1
@<TRIPOS>MOLECULE
*****
 37 40 0 0 0
SMALL
GASTEIGER

@<TRIPOS>ATOM
      1 C          62.3822   87.5230   11.7097 C.ar    1  UNL1        0.0852
      2 C          63.2571   88.5017   12.4355 C.ar    1  UNL1        0.0221
      3 C          63.5211   89.8544   11.8432 C.ar    1  UNL1        0.0508
      4 C          64.3959   90.8331   12.5690 C.ar    1  UNL1        0.1353
      5 N          64.6599   92.1857   11.9767 N.ar    1  UNL1       -0.2089
      6 C          64.0491   92.5595   10.6588 C.ar    1  UNL1        0.2000
      7 N          63.1743   91.5808    9.9330 N.ar    1  UNL1       -0.2238
      8 C          62.9103   90.2282   10.5252 C.ar    1  UNL1        0.0888
      9 C          62.0355   89.2494    9.7994 C.ar    1  UNL1        0.0574
     10 C          61.7714   87.8969   10.3917 C.ar    1  UNL1        0.1533
     11 C          63.0517   85.6076   13.3324 C.2     1  UNL1        0.2769
     12 O          64.2492   86.3975   13.7707 O.2     1  UNL1       -0.2674
     13 N          62.1182   86.1704   12.3019 N.am    1  UNL1       -0.2762
     14 H          61.3323   85.6520   12.0143 H       1  UNL1        0.1553
     15 C          63.6356   83.0834   13.5266 C.2     1  UNL1        0.0256
     16 C          62.7876   84.2550   13.9247 C.2     1  UNL1        0.1905
     17 F          61.6756   84.0739   14.9149 F       1  UNL1       -0.1997
     18 C          63.3716   81.7308   14.1188 C.3     1  UNL1        0.1014
     19 C          62.6417   79.9860   12.3376 C.3     1  UNL1        0.0899
     20 N          62.3176   80.8445   13.5241 N.3     1  UNL1       -0.2665
     21 C          60.9396   80.8167   14.1159 C.3     1  UNL1        0.0899
     22 N          65.0067   90.4592   13.8870 N.pl3   1  UNL1       -0.2978
     23 H          64.7095   89.6451   14.3540 H       1  UNL1        0.1536
     24 C          66.0703   91.3258   14.4935 C.ar    1  UNL1        0.0504
     25 C          65.7647   92.1471   15.7108 C.ar    1  UNL1        0.0170
     26 C          66.8283   93.0137   16.3173 C.ar    1  UNL1        0.0318
     27 C          68.1975   93.0589   15.7064 C.ar    1  UNL1        0.1507
     28 F          69.2611   93.9255   16.3129 F       1  UNL1       -0.2033
     29 C          68.5032   92.2376   14.4890 C.ar    1  UNL1        0.0863
     30 CL         69.8724   92.2828   13.8781 Cl      1  UNL1       -0.0799
     31 C          67.4396   91.3710   13.8825 C.ar    1  UNL1        0.0283
     32 O          60.8966   86.9181    9.6659 O.3     1  UNL1       -0.4752
     33 C          61.4738   86.0562    8.5824 C.3     1  UNL1        0.1979
     34 C          60.7536   85.5828    7.3547 C.3     1  UNL1        0.0782
     35 C          61.7072   84.7504    6.5499 C.3     1  UNL1        0.1461
     36 O          63.0168   84.7094    7.2802 O.3     1  UNL1       -0.3498
     37 C          62.8725   85.5165    8.5363 C.3     1  UNL1        0.1855
@<TRIPOS>BOND
     1    19    20    1
     2    20    21    1
     3    20    18    1
     4    18    15    1
     5    15    16    2
     6    16    17    1
     7    16    11    1
     8    11    12    2
     9    11    13   am
    10    13     1    1
    11     1     2   ar
    12     2     3   ar
    13     3     4   ar
    14     4    22    1
    15    22    24    1
    16    24    25   ar
    17    25    26   ar
    18    26    27   ar
    19    27    28    1
    20    27    29   ar
    21    29    30    1
    22    29    31   ar
    23     4     5   ar
    24     5     6   ar
    25     6     7   ar
    26     7     8   ar
    27     8     9   ar
    28     9    10   ar
    29    10    32    1
    30    33    32    1
    31    33    34    1
    32    34    35    1
    33    35    36    1
    34    36    37    1
    35    10     1   ar
    36    37    33    1
    37     8     3   ar
    38    31    24   ar
    39    13    14    1
    40    22    23    1
@<TRIPOS>MOLECULE
*****
 37 40 0 0 0
SMALL
GASTEIGER

@<TRIPOS>ATOM
      1 C          62.9238   86.4625   11.7417 C.ar    1  UNL1        0.0852
      2 C          63.4704   85.7997   12.9713 C.ar    1  UNL1        0.0221
      3 C          63.2262   84.3386   13.2072 C.ar    1  UNL1        0.0508
      4 C          63.7727   83.6758   14.4368 C.ar    1  UNL1        0.1353
      5 N          63.5285   82.2147   14.6727 N.ar    1  UNL1       -0.2089
      6 C          62.7377   81.4165   13.6790 C.ar    1  UNL1        0.2000
      7 N          62.1912   82.0793   12.4494 N.ar    1  UNL1       -0.2238
      8 C          62.4354   83.5404   12.2135 C.ar    1  UNL1        0.0888
      9 C          61.8888   84.2032   10.9839 C.ar    1  UNL1        0.0574
     10 C          62.1330   85.6642   10.7480 C.ar    1  UNL1        0.1533
     11 C          62.0293   88.8967   11.5850 C.2     1  UNL1        0.2769
     12 O          60.6464   88.4088   11.9002 O.2     1  UNL1       -0.2674
     13 N          63.1681   87.9235   11.5058 N.am    1  UNL1       -0.2762
     14 H          64.0757   88.2438   11.2989 H       1  UNL1        0.1553
     15 C          63.6773   90.8759   11.2428 C.2     1  UNL1        0.0256
     16 C          62.2736   90.3578   11.3491 C.2     1  UNL1        0.1905
     17 F          61.1143   91.3007   11.2194 F       1  UNL1       -0.1997
     18 C          63.9216   92.3369   11.0069 C.3     1  UNL1        0.1014
     19 C          65.9561   93.8814   10.5323 C.3     1  UNL1        0.0899
     20 N          65.2088   92.9639   11.4541 N.3     1  UNL1       -0.2665
     21 C          65.7487   92.6734   12.8230 C.3     1  UNL1        0.0899
     22 N          64.5636   84.4741   15.4305 N.pl3   1  UNL1       -0.2978
     23 H          65.3664   84.0852   15.8470 H       1  UNL1        0.1536
     24 C          64.1311   85.8648   15.7895 C.ar    1  UNL1        0.0504
     25 C          63.2282   86.0892   16.9661 C.ar    1  UNL1        0.0170
     26 C          62.7958   87.4799   17.3251 C.ar    1  UNL1        0.0318
     27 C          63.2662   88.6462   16.5076 C.ar    1  UNL1        0.1507
     28 F          62.8338   90.0369   16.8667 F       1  UNL1       -0.2033
     29 C          64.1692   88.4218   15.3310 C.ar    1  UNL1        0.0863
     30 CL         64.6397   89.5881   14.5135 Cl      1  UNL1       -0.0799
     31 C          64.6016   87.0311   14.9720 C.ar    1  UNL1        0.0283
     32 O          61.5864   86.3270    9.5184 O.3     1  UNL1       -0.4752
     33 C          61.6075   85.6040    8.2043 C.3     1  UNL1        0.1979
     34 C          62.8112   84.9856    7.5574 C.3     1  UNL1        0.0782
     35 C          62.3762   84.3718    6.2597 C.3     1  UNL1        0.1461
     36 O          60.9034   84.6108    6.1047 O.3     1  UNL1       -0.3498
     37 C          60.4284   85.3723    7.3065 C.3     1  UNL1        0.1855
@<TRIPOS>BOND
     1    19    20    1
     2    20    21    1
     3    20    18    1
     4    18    15    1
     5    15    16    2
     6    16    17    1
     7    16    11    1
     8    11    12    2
     9    11    13   am
    10    13     1    1
    11     1     2   ar
    12     2     3   ar
    13     3     4   ar
    14     4    22    1
    15    22    24    1
    16    24    25   ar
    17    25    26   ar
    18    26    27   ar
    19    27    28    1
    20    27    29   ar
    21    29    30    1
    22    29    31   ar
    23     4     5   ar
    24     5     6   ar
    25     6     7   ar
    26     7     8   ar
    27     8     9   ar
    28     9    10   ar
    29    10    32    1
    30    33    32    1
    31    33    34    1
    32    34    35    1
    33    35    36    1
    34    36    37    1
    35    10     1   ar
    36    37    33    1
    37     8     3   ar
    38    31    24   ar
    39    13    14    1
    40    22    23    1
@<TRIPOS>MOLECULE
*****
 37 40 0 0 0
SMALL
GASTEIGER

@<TRIPOS>ATOM
      1 C          62.3204   87.0021   11.8062 C.ar    1  UNL1        0.0852
      2 C          63.2080   88.0113   12.4724 C.ar    1  UNL1        0.0221
      3 C          63.3628   89.3808   11.8804 C.ar    1  UNL1        0.0508
      4 C          64.2503   90.3900   12.5467 C.ar    1  UNL1        0.1353
      5 N          64.4051   91.7595   11.9548 N.ar    1  UNL1       -0.2089
      6 C          63.6723   92.1199   10.6966 C.ar    1  UNL1        0.2000
      7 N          62.7848   91.1107   10.0303 N.ar    1  UNL1       -0.2238
      8 C          62.6300   89.7412   10.6222 C.ar    1  UNL1        0.0888
      9 C          61.7424   88.7321    9.9560 C.ar    1  UNL1        0.0574
     10 C          61.5876   87.3626   10.5479 C.ar    1  UNL1        0.1533
     11 C          62.9177   84.4737   11.8139 C.2     1  UNL1        0.2769
     12 O          63.8246   84.6842   10.6378 O.2     1  UNL1       -0.2674
     13 N          62.1657   85.6326   12.3981 N.am    1  UNL1       -0.2762
     14 H          61.5705   85.4944   13.1700 H       1  UNL1        0.1553
     15 C          62.9702   82.8950   13.8767 C.2     1  UNL1        0.0256
     16 C          62.7629   83.1041   12.4059 C.2     1  UNL1        0.1905
     17 F          62.4008   81.9437   11.5271 F       1  UNL1       -0.1997
     18 C          62.8154   81.5255   14.4687 C.3     1  UNL1        0.1014
     19 C          60.3669   80.7322   14.1145 C.3     1  UNL1        0.0899
     20 N          61.8370   80.5571   13.8730 N.3     1  UNL1       -0.2665
     21 C          62.3285   79.4137   13.0359 C.3     1  UNL1        0.0899
     22 N          64.9831   90.0295   13.8050 N.pl3   1  UNL1       -0.2978
     23 H          65.9050   90.3451   13.9453 H       1  UNL1        0.1536
     24 C          64.3112   89.1883   14.8494 C.ar    1  UNL1        0.0504
     25 C          63.4286   89.8320   15.8773 C.ar    1  UNL1        0.0170
     26 C          62.7566   88.9908   16.9217 C.ar    1  UNL1        0.0318
     27 C          62.9673   87.5058   16.9382 C.ar    1  UNL1        0.1507
     28 F          62.2953   86.6646   17.9827 F       1  UNL1       -0.2033
     29 C          63.8499   86.8619   15.9103 C.ar    1  UNL1        0.0863
     30 CL         64.0605   85.3769   15.9269 Cl      1  UNL1       -0.0799
     31 C          64.5218   87.7032   14.8659 C.ar    1  UNL1        0.0283
     32 O          60.7001   86.3535    9.8816 O.3     1  UNL1       -0.4752
     33 C          61.0775   85.7901    8.5437 C.3     1  UNL1        0.1979
     34 C          62.4490   85.3465    8.1288 C.3     1  UNL1        0.0782
     35 C          62.3688   84.8537    6.7144 C.3     1  UNL1        0.1461
     36 O          60.9476   84.9927    6.2550 O.3     1  UNL1       -0.3498
     37 C          60.1495   85.5715    7.3856 C.3     1  UNL1        0.1855
@<TRIPOS>BOND
     1    19    20    1
     2    20    21    1
     3    20    18    1
     4    18    15    1
     5    15    16    2
     6    16    17    1
     7    16    11    1
     8    11    12    2
     9    11    13   am
    10    13     1    1
    11     1     2   ar
    12     2     3   ar
    13     3     4   ar
    14     4    22    1
    15    22    24    1
    16    24    25   ar
    17    25    26   ar
    18    26    27   ar
    19    27    28    1
    20    27    29   ar
    21    29    30    1
    22    29    31   ar
    23     4     5   ar
    24     5     6   ar
    25     6     7   ar
    26     7     8   ar
    27     8     9   ar
    28     9    10   ar
    29    10    32    1
    30    33    32    1
    31    33    34    1
    32    34    35    1
    33    35    36    1
    34    36    37    1
    35    10     1   ar
    36    37    33    1
    37     8     3   ar
    38    31    24   ar
    39    13    14    1
    40    22    23    1
