@<TRIPOS>MOLECULE
*****
 36 39 0 0 0
SMALL
GASTEIGER

@<TRIPOS>ATOM
      1 CA         62.5662   86.4649   12.1811 C.3     2  LEU2        0.1523
      2 C          63.5075   86.3434   13.3426 C.2     2  LEU2        0.2409
      3 O          63.6911   85.0197   14.0240 O.2     2  LEU2       -0.2733
      4 N          64.2653   87.5456   13.8228 N.am    1  UNK1       -0.2970
      5 C          64.0818   88.8692   13.1414 C.3     1  UNK1        0.1494
      6 C          63.1405   88.9907   11.9800 C.2     1  UNK1        0.2444
      7 O          62.9569   90.3144   11.2986 O.2     1  UNK1       -0.2731
      8 N          62.3826   87.7886   11.4998 N.am    2  LEU2       -0.2615
      9 H          64.8832   87.4658   14.5851 H       1  UNK1        0.1499
     10 C          64.8396   90.0714   13.6216 C.3     1  UNK1        0.0356
     11 C          65.0991   91.3221   12.8352 C.3     1  UNK1        0.0285
     12 C          65.8908   92.2576   13.7000 C.ar    1  UNK1       -0.0261
     13 C          66.4322   93.6349   13.4554 C.ar    1  UNK1       -0.0046
     14 C          67.2034   94.3397   14.5317 C.ar    1  UNK1       -0.0003
     15 C          67.4333   93.6672   15.8526 C.ar    1  UNK1       -0.0003
     16 C          66.8919   92.2899   16.0972 C.ar    1  UNK1       -0.0046
     17 C          66.1207   91.5851   15.0210 C.ar    1  UNK1       -0.0261
     18 C          65.4710   90.2339   14.9725 C.3     1  UNK1        0.0285
     19 CB         61.8084   85.2628   11.7010 C.3     2  LEU2        0.0292
     20 CD1        63.6453   83.8114   10.5744 C.3     2  LEU2        0.0001
     21 CG         62.5104   83.9463   11.5459 C.3     2  LEU2        0.0021
     22 CD2        62.0775   82.7647   12.3623 C.3     2  LEU2        0.0001
     23 C          61.4413   87.9101   10.3383 C.3     0  UNK0        0.1775
     24 C          61.4951   86.9102    9.2215 C.ar    0  UNK0        0.0321
     25 C          62.8158   86.3610    8.7695 C.ar    0  UNK0        0.0023
     26 C          62.8696   85.3611    7.6527 C.ar    0  UNK0        0.0295
     27 C          61.6027   84.9103    6.9879 C.ar    0  UNK0        0.1424
     28 F          61.6565   83.9103    5.8711 F       0  UNK0       -0.2041
     29 C          60.2821   85.4594    7.4399 C.ar    0  UNK0        0.0590
     30 C          60.2283   86.4593    8.5567 C.ar    0  UNK0        0.1404
     31 F          59.2105   86.7822    8.7924 F       0  UNK0       -0.2044
     32 C          60.4461   89.0315   10.2936 C.2     0  UNK0        0.2482
     33 O          60.2081   89.7724    9.0112 O.2     0  UNK0       -0.2727
     34 N          59.6890   89.4122   11.5313 N.am    0  UNK0       -0.2744
     35 C          58.6938   90.5336   11.4866 C.3     0  UNK0        0.1150
     36 C          59.7713   88.9532   12.5203 C.3     0  UNK0        0.1150
@<TRIPOS>BOND
     1    20    21    1
     2    21    22    1
     3    21    19    1
     4     1    19    1
     5     1     2    1
     6     2     3    2
     7     2     4   am
     8     4     5    1
     9     5    10    1
    10    10    11    1
    11    11    12    1
    12    12    13   ar
    13    13    14   ar
    14    14    15   ar
    15    15    16   ar
    16    16    17   ar
    17    17    18    1
    18     5     6    1
    19     6     7    2
    20     6     8   am
    21    23     8    1
    22    23    32    1
    23    32    33    2
    24    32    34   am
    25    34    35    1
    26    34    36    1
    27    23    24    1
    28    24    25   ar
    29    25    26   ar
    30    26    27   ar
    31    27    28    1
    32    27    29   ar
    33    29    30   ar
    34    30    31    1
    35     8     1    1
    36    30    24   ar
    37    18    10    1
    38    17    12   ar
    39     4     9    1
@<TRIPOS>MOLECULE
*****
 36 39 0 0 0
SMALL
GASTEIGER

@<TRIPOS>ATOM
      1 CA         63.4537   90.0851   14.1635 C.3     2  LEU2        0.1523
      2 C          64.5605   90.9543   14.6826 C.2     2  LEU2        0.2409
      3 O          64.9743   90.8624   16.1215 O.2     2  LEU2       -0.2733
      4 N          65.2535   91.9154   13.7628 N.am    1  UNK1       -0.2970
      5 C          64.8397   92.0074   12.3240 C.3     1  UNK1        0.1494
      6 C          63.7330   91.1382   11.8049 C.2     1  UNK1        0.2444
      7 O          63.3192   91.2301   10.3660 O.2     1  UNK1       -0.2731
      8 N          63.0400   90.1770   12.7246 N.am    2  LEU2       -0.2615
      9 H          65.9799   92.4859   14.1036 H       1  UNK1        0.1499
     10 C          65.5327   92.9685   11.4042 C.3     1  UNK1        0.0356
     11 C          66.2888   92.6086   10.1598 C.3     1  UNK1        0.0285
     12 C          66.8147   93.8760    9.5539 C.ar    1  UNK1       -0.0261
     13 C          67.6304   94.1367    8.3224 C.ar    1  UNK1       -0.0046
     14 C          68.0150   95.5407    7.9609 C.ar    1  UNK1       -0.0003
     15 C          67.5839   96.6840    8.8309 C.ar    1  UNK1       -0.0003
     16 C          66.7683   96.4233   10.0624 C.ar    1  UNK1       -0.0046
     17 C          66.3837   95.0193   10.4239 C.ar    1  UNK1       -0.0261
     18 C          65.5914   94.4585   11.5675 C.3     1  UNK1        0.0285
     19 CB         62.7607   89.1239   15.0832 C.3     2  LEU2        0.0292
     20 CD1        64.6190   87.3188   14.8881 C.3     2  LEU2        0.0001
     21 CG         63.5178   87.9701   15.6711 C.3     2  LEU2        0.0021
     22 CD2        63.1736   87.4677   17.0419 C.3     2  LEU2        0.0001
     23 C          61.9332   89.3078   12.2054 C.3     0  UNK0        0.1775
     24 C          62.2563   88.0316   11.4864 C.ar    0  UNK0        0.0321
     25 C          62.6604   86.8142   12.2640 C.ar    0  UNK0        0.0023
     26 C          62.9835   85.5381   11.5449 C.ar    0  UNK0        0.0295
     27 C          62.9025   85.4794   10.0482 C.ar    0  UNK0        0.1424
     28 F          63.2256   84.2032    9.3291 F       0  UNK0       -0.2041
     29 C          62.4984   86.6968    9.2706 C.ar    0  UNK0        0.0590
     30 C          62.1753   87.9729    9.9897 C.ar    0  UNK0        0.1404
     31 F          61.8953   88.7853    9.3134 F       0  UNK0       -0.2044
     32 C          60.5034   89.7147   12.4054 C.2     0  UNK0        0.2482
     33 O          59.7687   89.2901   13.6423 O.2     0  UNK0       -0.2727
     34 N          59.8082   90.5462   11.3684 N.am    0  UNK0       -0.2744
     35 C          58.3783   90.9531   11.5683 C.3     0  UNK0        0.1150
     36 C          60.2308   90.9169   10.4305 C.3     0  UNK0        0.1150
@<TRIPOS>BOND
     1    20    21    1
     2    21    22    1
     3    21    19    1
     4     1    19    1
     5     1     2    1
     6     2     3    2
     7     2     4   am
     8     4     5    1
     9     5    10    1
    10    10    11    1
    11    11    12    1
    12    12    13   ar
    13    13    14   ar
    14    14    15   ar
    15    15    16   ar
    16    16    17   ar
    17    17    18    1
    18     5     6    1
    19     6     7    2
    20     6     8   am
    21    23     8    1
    22    23    32    1
    23    32    33    2
    24    32    34   am
    25    34    35    1
    26    34    36    1
    27    23    24    1
    28    24    25   ar
    29    25    26   ar
    30    26    27   ar
    31    27    28    1
    32    27    29   ar
    33    29    30   ar
    34    30    31    1
    35     8     1    1
    36    30    24   ar
    37    18    10    1
    38    17    12   ar
    39     4     9    1
@<TRIPOS>MOLECULE
*****
 36 39 0 0 0
SMALL
GASTEIGER

@<TRIPOS>ATOM
      1 CA         62.0015   86.9528   11.1626 C.3     2  LEU2        0.1523
      2 C          62.0255   88.3373   10.5859 C.2     2  LEU2        0.2409
      3 O          61.2352   88.6487    9.3495 O.2     2  LEU2       -0.2733
      4 N          62.8397   89.4105   11.2456 N.am    1  UNK1       -0.2970
      5 C          63.6300   89.0993   12.4819 C.3     1  UNK1        0.1494
      6 C          63.6060   87.7148   13.0586 C.2     1  UNK1        0.2444
      7 O          64.3963   87.4035   14.2950 O.2     1  UNK1       -0.2731
      8 N          62.7917   86.6416   12.3989 N.am    2  LEU2       -0.2615
      9 H          62.8555   90.3192   10.8671 H       1  UNK1        0.1499
     10 C          64.4443   90.1725   13.1416 C.3     1  UNK1        0.0356
     11 C          64.9599   91.4180   12.4837 C.3     1  UNK1        0.0285
     12 C          65.7202   92.2039   13.5105 C.ar    1  UNK1       -0.0261
     13 C          66.4483   93.5132   13.4355 C.ar    1  UNK1       -0.0046
     14 C          67.1305   94.0627   14.6530 C.ar    1  UNK1       -0.0003
     15 C          67.0847   93.3030   15.9456 C.ar    1  UNK1       -0.0003
     16 C          66.3567   91.9937   16.0206 C.ar    1  UNK1       -0.0046
     17 C          65.6744   91.4442   14.8030 C.ar    1  UNK1       -0.0261
     18 C          64.8858   90.1887   14.5750 C.3     1  UNK1        0.0285
     19 CB         61.1872   85.8796   10.5029 C.3     2  LEU2        0.0292
     20 CD1        62.2996   85.4272    8.1990 C.3     2  LEU2        0.0001
     21 CG         61.0979   85.8187    9.0068 C.3     2  LEU2        0.0021
     22 CD2        59.8068   86.1494    8.3185 C.3     2  LEU2        0.0001
     23 C          62.7677   85.2570   12.9756 C.3     0  UNK0        0.1775
     24 C          63.0559   84.0744   12.0991 C.ar    0  UNK0        0.0321
     25 C          63.9439   84.2283   10.8999 C.ar    0  UNK0        0.0023
     26 C          64.2321   83.0457   10.0234 C.ar    0  UNK0        0.0295
     27 C          63.6323   81.7091   10.3460 C.ar    0  UNK0        0.1424
     28 F          63.9205   80.5265    9.4695 F       0  UNK0       -0.2041
     29 C          62.7444   81.5553   11.5451 C.ar    0  UNK0        0.0590
     30 C          62.4562   82.7379   12.4216 C.ar    0  UNK0        0.1404
     31 F          61.7978   82.4973   13.2609 F       0  UNK0       -0.2044
     32 C          62.4556   85.0552   14.4288 C.2     0  UNK0        0.2482
     33 O          61.0808   85.3537   14.9491 O.2     0  UNK0       -0.2727
     34 N          63.5183   84.5547   15.3617 N.am    0  UNK0       -0.2744
     35 C          63.2061   84.3529   16.8149 C.3     0  UNK0        0.1150
     36 C          64.5515   84.3027   15.1076 C.3     0  UNK0        0.1150
@<TRIPOS>BOND
     1    20    21    1
     2    21    22    1
     3    21    19    1
     4     1    19    1
     5     1     2    1
     6     2     3    2
     7     2     4   am
     8     4     5    1
     9     5    10    1
    10    10    11    1
    11    11    12    1
    12    12    13   ar
    13    13    14   ar
    14    14    15   ar
    15    15    16   ar
    16    16    17   ar
    17    17    18    1
    18     5     6    1
    19     6     7    2
    20     6     8   am
    21    23     8    1
    22    23    32    1
    23    32    33    2
    24    32    34   am
    25    34    35    1
    26    34    36    1
    27    23    24    1
    28    24    25   ar
    29    25    26   ar
    30    26    27   ar
    31    27    28    1
    32    27    29   ar
    33    29    30   ar
    34    30    31    1
    35     8     1    1
    36    30    24   ar
    37    18    10    1
    38    17    12   ar
    39     4     9    1
@<TRIPOS>MOLECULE
*****
 36 39 0 0 0
SMALL
GASTEIGER

@<TRIPOS>ATOM
      1 CA         64.7339   92.0628   12.3729 C.3     2  LEU2        0.1523
      2 C          64.4060   92.3416   10.9361 C.2     2  LEU2        0.2409
      3 O          64.9425   93.5739   10.2698 O.2     2  LEU2       -0.2733
      4 N          63.5416   91.3883   10.1654 N.am    1  UNK1       -0.2970
      5 C          63.0051   90.1561   10.8316 C.3     1  UNK1        0.1494
      6 C          63.3330   89.8773   12.2684 C.2     1  UNK1        0.2444
      7 O          62.7965   88.6451   12.9347 O.2     1  UNK1       -0.2731
      8 N          64.1974   90.8306   13.0391 N.am    2  LEU2       -0.2615
      9 H          63.3264   91.5713    9.2223 H       1  UNK1        0.1499
     10 C          62.1407   89.2028   10.0609 C.3     1  UNK1        0.0356
     11 C          62.4920   87.7904    9.6979 C.3     1  UNK1        0.0285
     12 C          61.3416   87.2092    8.9305 C.ar    1  UNK1       -0.0261
     13 C          61.1242   85.8570    8.3188 C.ar    1  UNK1       -0.0046
     14 C          59.8445   85.5580    7.5957 C.ar    1  UNK1       -0.0003
     15 C          58.7822   86.6112    7.4843 C.ar    1  UNK1       -0.0003
     16 C          58.9997   87.9633    8.0961 C.ar    1  UNK1       -0.0046
     17 C          60.2794   88.2623    8.8192 C.ar    1  UNK1       -0.0261
     18 C          60.7732   89.4945    9.5178 C.3     1  UNK1        0.0285
     19 CB         65.5983   93.0161   13.1436 C.3     2  LEU2        0.0292
     20 CD1        66.5304   95.3154   12.3725 C.3     2  LEU2        0.0001
     21 CG         66.6457   93.8210   12.4330 C.3     2  LEU2        0.0021
     22 CD2        67.8085   93.1316   11.7828 C.3     2  LEU2        0.0001
     23 C          64.5252   90.5517   14.4761 C.3     0  UNK0        0.1775
     24 C          64.1747   89.2248   15.0814 C.ar    0  UNK0        0.0321
     25 C          64.7025   87.9597   14.4723 C.ar    0  UNK0        0.0023
     26 C          64.3520   86.6328   15.0776 C.ar    0  UNK0        0.0295
     27 C          63.4737   86.5710   16.2921 C.ar    0  UNK0        0.1424
     28 F          63.1232   85.2441   16.8975 F       0  UNK0       -0.2041
     29 C          62.9460   87.8361   16.9012 C.ar    0  UNK0        0.0590
     30 C          63.2965   89.1630   16.2959 C.ar    0  UNK0        0.1404
     31 F          62.8516   90.0071   16.8300 F       0  UNK0       -0.2044
     32 C          65.2036   91.5997   15.3076 C.2     0  UNK0        0.2482
     33 O          64.3845   92.5659   16.1111 O.2     0  UNK0       -0.2727
     34 N          66.7011   91.6816   15.3357 N.am    0  UNK0       -0.2744
     35 C          67.3795   92.7296   16.1673 C.3     0  UNK0        0.1150
     36 C          67.4054   91.0405   14.7985 C.3     0  UNK0        0.1150
@<TRIPOS>BOND
     1    20    21    1
     2    21    22    1
     3    21    19    1
     4     1    19    1
     5     1     2    1
     6     2     3    2
     7     2     4   am
     8     4     5    1
     9     5    10    1
    10    10    11    1
    11    11    12    1
    12    12    13   ar
    13    13    14   ar
    14    14    15   ar
    15    15    16   ar
    16    16    17   ar
    17    17    18    1
    18     5     6    1
    19     6     7    2
    20     6     8   am
    21    23     8    1
    22    23    32    1
    23    32    33    2
    24    32    34   am
    25    34    35    1
    26    34    36    1
    27    23    24    1
    28    24    25   ar
    29    25    26   ar
    30    26    27   ar
    31    27    28    1
    32    27    29   ar
    33    29    30   ar
    34    30    31    1
    35     8     1    1
    36    30    24   ar
    37    18    10    1
    38    17    12   ar
    39     4     9    1
@<TRIPOS>MOLECULE
*****
 36 39 0 0 0
SMALL
GASTEIGER

@<TRIPOS>ATOM
      1 CA         64.8492   92.2627   12.0876 C.3     2  LEU2        0.1523
      2 C          64.2854   92.5976   10.7385 C.2     2  LEU2        0.2409
      3 O          64.6096   93.9137   10.0958 O.2     2  LEU2       -0.2733
      4 N          63.3974   91.6166   10.0322 N.am    1  UNK1       -0.2970
      5 C          63.0732   90.3006   10.6749 C.3     1  UNK1        0.1494
      6 C          63.6370   89.9657   12.0239 C.2     1  UNK1        0.2444
      7 O          63.3128   88.6496   12.6666 O.2     1  UNK1       -0.2731
      8 N          64.5250   90.9467   12.7302 N.am    2  LEU2       -0.2615
      9 H          63.0273   91.8364    9.1468 H       1  UNK1        0.1499
     10 C          62.1851   89.3195    9.9685 C.3     1  UNK1        0.0356
     11 C          60.8095   89.5977    9.4393 C.3     1  UNK1        0.0285
     12 C          60.2910   88.3381    8.8110 C.ar    1  UNK1       -0.0261
     13 C          58.9943   88.0169    8.1288 C.ar    1  UNK1       -0.0046
     14 C          58.7529   86.6389    7.5876 C.ar    1  UNK1       -0.0003
     15 C          59.8082   85.5822    7.7286 C.ar    1  UNK1       -0.0003
     16 C          61.1048   85.9035    8.4108 C.ar    1  UNK1       -0.0046
     17 C          61.3462   87.2814    8.9520 C.ar    1  UNK1       -0.0261
     18 C          62.5169   87.8880    9.6674 C.3     1  UNK1        0.0285
     19 CB         65.7372   93.2438   12.7939 C.3     2  LEU2        0.0292
     20 CD1        67.6045   93.6436   11.0323 C.3     2  LEU2        0.0001
     21 CG         66.5952   94.1847   12.0011 C.3     2  LEU2        0.0021
     22 CD2        66.4440   95.6666   12.1772 C.3     2  LEU2        0.0001
     23 C          65.0888   90.6118   14.0793 C.3     0  UNK0        0.1775
     24 C          66.2388   91.4026   14.6289 C.ar    0  UNK0        0.0321
     25 C          67.6096   91.2398   14.0419 C.ar    0  UNK0        0.0023
     26 C          68.7596   92.0306   14.5915 C.ar    0  UNK0        0.0295
     27 C          68.5389   92.9843   15.7282 C.ar    0  UNK0        0.1424
     28 F          69.6889   93.7751   16.2778 F       0  UNK0       -0.2041
     29 C          67.1681   93.1470   16.3151 C.ar    0  UNK0        0.0590
     30 C          66.0181   92.3562   15.7655 C.ar    0  UNK0        0.1404
     31 F          65.0740   92.5635   16.2768 F       0  UNK0       -0.2044
     32 C          64.5027   89.4860   14.8787 C.2     0  UNK0        0.2482
     33 O          64.9325   88.0738   14.6124 O.2     0  UNK0       -0.2727
     34 N          63.4866   89.7725   15.9444 N.am    0  UNK0       -0.2744
     35 C          62.9004   88.6467   16.7438 C.3     0  UNK0        0.1150
     36 C          63.0935   90.7512   16.2327 C.3     0  UNK0        0.1150
@<TRIPOS>BOND
     1    20    21    1
     2    21    22    1
     3    21    19    1
     4     1    19    1
     5     1     2    1
     6     2     3    2
     7     2     4   am
     8     4     5    1
     9     5    10    1
    10    10    11    1
    11    11    12    1
    12    12    13   ar
    13    13    14   ar
    14    14    15   ar
    15    15    16   ar
    16    16    17   ar
    17    17    18    1
    18     5     6    1
    19     6     7    2
    20     6     8   am
    21    23     8    1
    22    23    32    1
    23    32    33    2
    24    32    34   am
    25    34    35    1
    26    34    36    1
    27    23    24    1
    28    24    25   ar
    29    25    26   ar
    30    26    27   ar
    31    27    28    1
    32    27    29   ar
    33    29    30   ar
    34    30    31    1
    35     8     1    1
    36    30    24   ar
    37    18    10    1
    38    17    12   ar
    39     4     9    1
@<TRIPOS>MOLECULE
*****
 36 39 0 0 0
SMALL
GASTEIGER

@<TRIPOS>ATOM
      1 CA         62.8368   85.3349   14.2439 C.3     2  LEU2        0.1523
      2 C          63.3763   86.0349   15.4559 C.2     2  LEU2        0.2409
      3 O          63.3499   85.3512   16.7908 O.2     2  LEU2       -0.2733
      4 N          63.9422   87.4186   15.3330 N.am    1  UNK1       -0.2970
      5 C          63.9686   88.1024   13.9982 C.3     1  UNK1        0.1494
      6 C          63.4292   87.4024   12.7862 C.2     1  UNK1        0.2444
      7 O          63.4556   88.0861   11.4513 O.2     1  UNK1       -0.2731
      8 N          62.8633   86.0187   12.9091 N.am    2  LEU2       -0.2615
      9 H          64.2962   87.8781   16.1285 H       1  UNK1        0.1499
     10 C          64.5345   89.4861   13.8754 C.3     1  UNK1        0.0356
     11 C          65.3126   90.2172   14.9290 C.3     1  UNK1        0.0285
     12 C          65.6806   91.5646   14.3822 C.ar    1  UNK1       -0.0261
     13 C          66.4460   92.7121   14.9716 C.ar    1  UNK1       -0.0046
     14 C          66.6607   93.9613   14.1695 C.ar    1  UNK1       -0.0003
     15 C          66.1101   94.0629   12.7779 C.ar    1  UNK1       -0.0003
     16 C          65.3447   92.9155   12.1885 C.ar    1  UNK1       -0.0046
     17 C          65.1300   91.6663   12.9906 C.ar    1  UNK1       -0.0261
     18 C          64.4216   90.3817   12.6774 C.3     1  UNK1        0.0285
     19 CB         62.2710   83.9512   14.3667 C.3     2  LEU2        0.0292
     20 CD1        62.6366   81.3790   14.3822 C.3     2  LEU2        0.0001
     21 CG         63.1910   82.7705   14.4630 C.3     2  LEU2        0.0021
     22 CD2        64.6656   82.9811   14.6402 C.3     2  LEU2        0.0001
     23 C          62.3238   85.3187   11.6970 C.3     0  UNK0        0.1775
     24 C          61.5467   86.0881   10.6703 C.ar    0  UNK0        0.0321
     25 C          60.5199   87.0920   11.1041 C.ar    0  UNK0        0.0023
     26 C          59.7428   87.8614   10.0775 C.ar    0  UNK0        0.0295
     27 C          59.9924   87.6270    8.6171 C.ar    0  UNK0        0.1424
     28 F          59.2152   88.3964    7.5904 F       0  UNK0       -0.2041
     29 C          61.0191   86.6232    8.1833 C.ar    0  UNK0        0.0590
     30 C          61.7962   85.8537    9.2100 C.ar    0  UNK0        0.1404
     31 F          62.5121   85.1548    8.7685 F       0  UNK0       -0.2044
     32 C          62.5616   83.8493   11.5116 C.2     0  UNK0        0.2482
     33 O          61.4521   82.8722   11.7650 O.2     0  UNK0       -0.2727
     34 N          63.9088   83.3570   11.0727 N.am    0  UNK0       -0.2744
     35 C          64.1466   81.8876   10.8873 C.3     0  UNK0        0.1150
     36 C          64.7929   83.9634   10.8573 C.3     0  UNK0        0.1150
@<TRIPOS>BOND
     1    20    21    1
     2    21    22    1
     3    21    19    1
     4     1    19    1
     5     1     2    1
     6     2     3    2
     7     2     4   am
     8     4     5    1
     9     5    10    1
    10    10    11    1
    11    11    12    1
    12    12    13   ar
    13    13    14   ar
    14    14    15   ar
    15    15    16   ar
    16    16    17   ar
    17    17    18    1
    18     5     6    1
    19     6     7    2
    20     6     8   am
    21    23     8    1
    22    23    32    1
    23    32    33    2
    24    32    34   am
    25    34    35    1
    26    34    36    1
    27    23    24    1
    28    24    25   ar
    29    25    26   ar
    30    26    27   ar
    31    27    28    1
    32    27    29   ar
    33    29    30   ar
    34    30    31    1
    35     8     1    1
    36    30    24   ar
    37    18    10    1
    38    17    12   ar
    39     4     9    1
@<TRIPOS>MOLECULE
*****
 36 39 0 0 0
SMALL
GASTEIGER

@<TRIPOS>ATOM
      1 CA         64.7270   90.7094   14.0781 C.3     2  LEU2        0.1523
      2 C          63.6926   89.6580   14.3513 C.2     2  LEU2        0.2409
      3 O          63.5321   89.1059   15.7368 O.2     2  LEU2       -0.2733
      4 N          62.8188   89.1587   13.2391 N.am    1  UNK1       -0.2970
      5 C          62.9792   89.7107   11.8536 C.3     1  UNK1        0.1494
      6 C          64.0136   90.7620   11.5804 C.2     1  UNK1        0.2444
      7 O          64.1741   91.3141   10.1949 O.2     1  UNK1       -0.2731
      8 N          64.8875   91.2614   12.6926 N.am    2  LEU2       -0.2615
      9 H          62.1399   88.4686   13.4184 H       1  UNK1        0.1499
     10 C          62.1054   89.2114   10.7414 C.3     1  UNK1        0.0356
     11 C          61.2327   90.0543    9.8595 C.3     1  UNK1        0.0285
     12 C          60.5387   89.1454    8.8888 C.ar    1  UNK1       -0.0261
     13 C          59.5601   89.4153    7.7846 C.ar    1  UNK1       -0.0046
     14 C          59.0252   88.2805    6.9625 C.ar    1  UNK1       -0.0003
     15 C          59.4689   86.8757    7.2445 C.ar    1  UNK1       -0.0003
     16 C          60.4476   86.6057    8.3487 C.ar    1  UNK1       -0.0046
     17 C          60.9825   87.7405    9.1709 C.ar    1  UNK1       -0.0261
     18 C          61.9507   87.7813   10.3158 C.3     1  UNK1        0.0285
     19 CB         65.6009   91.2087   15.1903 C.3     2  LEU2        0.0292
     20 CD1        63.5201   92.2065   16.3840 C.3     2  LEU2        0.0001
     21 CG         65.0052   92.0086   16.3106 C.3     2  LEU2        0.0021
     22 CD2        65.8947   92.6108   17.3577 C.3     2  LEU2        0.0001
     23 C          65.9219   92.3128   12.4193 C.3     0  UNK0        0.1775
     24 C          66.9500   92.6420   13.4608 C.ar    0  UNK0        0.0321
     25 C          68.0280   91.6521   13.7897 C.ar    0  UNK0        0.0023
     26 C          69.0561   91.9813   14.8312 C.ar    0  UNK0        0.0295
     27 C          69.0062   93.3004   15.5437 C.ar    0  UNK0        0.1424
     28 F          70.0343   93.6296   16.5851 F       0  UNK0       -0.2041
     29 C          67.9283   94.2902   15.2148 C.ar    0  UNK0        0.0590
     30 C          66.9001   93.9610   14.1733 C.ar    0  UNK0        0.1404
     31 F          66.1704   94.7618   14.0253 F       0  UNK0       -0.2044
     32 C          65.9281   93.0349   11.1047 C.2     0  UNK0        0.2482
     33 O          64.8092   93.9720   10.7583 O.2     0  UNK0       -0.2727
     34 N          67.0534   92.8201   10.1363 N.am    0  UNK0       -0.2744
     35 C          67.0596   93.5422    8.8216 C.3     0  UNK0        0.1150
     36 C          67.9210   92.1681   10.2698 C.3     0  UNK0        0.1150
@<TRIPOS>BOND
     1    20    21    1
     2    21    22    1
     3    21    19    1
     4     1    19    1
     5     1     2    1
     6     2     3    2
     7     2     4   am
     8     4     5    1
     9     5    10    1
    10    10    11    1
    11    11    12    1
    12    12    13   ar
    13    13    14   ar
    14    14    15   ar
    15    15    16   ar
    16    16    17   ar
    17    17    18    1
    18     5     6    1
    19     6     7    2
    20     6     8   am
    21    23     8    1
    22    23    32    1
    23    32    33    2
    24    32    34   am
    25    34    35    1
    26    34    36    1
    27    23    24    1
    28    24    25   ar
    29    25    26   ar
    30    26    27   ar
    31    27    28    1
    32    27    29   ar
    33    29    30   ar
    34    30    31    1
    35     8     1    1
    36    30    24   ar
    37    18    10    1
    38    17    12   ar
    39     4     9    1
@<TRIPOS>MOLECULE
*****
 36 39 0 0 0
SMALL
GASTEIGER

@<TRIPOS>ATOM
      1 CA         64.9199   91.5750   13.9987 C.3     2  LEU2        0.1523
      2 C          63.9331   90.5454   14.4635 C.2     2  LEU2        0.2409
      3 O          63.8030   90.2376   15.9258 O.2     2  LEU2       -0.2733
      4 N          63.0763   89.8237   13.4660 N.am    1  UNK1       -0.2970
      5 C          63.2064   90.1315   12.0037 C.3     1  UNK1        0.1494
      6 C          64.1932   91.1611   11.5389 C.2     1  UNK1        0.2444
      7 O          64.3233   91.4689   10.0766 O.2     1  UNK1       -0.2731
      8 N          65.0500   91.8828   12.5364 N.am    2  LEU2       -0.2615
      9 H          62.4287   89.1479   13.7711 H       1  UNK1        0.1499
     10 C          62.3496   89.4097   11.0062 C.3     1  UNK1        0.0356
     11 C          62.2873   87.9240   10.8089 C.3     1  UNK1        0.0285
     12 C          61.3039   87.6430    9.7117 C.ar    1  UNK1       -0.0261
     13 C          60.8346   86.3619    9.0882 C.ar    1  UNK1       -0.0046
     14 C          59.8199   86.3929    7.9840 C.ar    1  UNK1       -0.0003
     15 C          59.2745   87.7048    7.5032 C.ar    1  UNK1       -0.0003
     16 C          59.7437   88.9859    8.1266 C.ar    1  UNK1       -0.0046
     17 C          60.7584   88.9550    9.2308 C.ar    1  UNK1       -0.0261
     18 C          61.4047   90.0468   10.0309 C.3     1  UNK1        0.0285
     19 CB         65.7767   92.2968   14.9962 C.3     2  LEU2        0.0292
     20 CD1        67.5177   90.3703   14.9109 C.3     2  LEU2        0.0001
     21 CG         67.1131   91.7356   15.3822 C.3     2  LEU2        0.0021
     22 CD2        68.0449   92.5397   16.2397 C.3     2  LEU2        0.0001
     23 C          66.0368   92.9125   12.0715 C.3     0  UNK0        0.1775
     24 C          67.0005   92.5841   10.9700 C.ar    0  UNK0        0.0321
     25 C          66.8144   93.1831    9.6073 C.ar    0  UNK0        0.0023
     26 C          67.7781   92.8547    8.5058 C.ar    0  UNK0        0.0295
     27 C          68.9279   91.9274    8.7668 C.ar    0  UNK0        0.1424
     28 F          69.8916   91.5990    7.6652 F       0  UNK0       -0.2041
     29 C          69.1139   91.3284   10.1294 C.ar    0  UNK0        0.0590
     30 C          68.1503   91.6568   11.2309 C.ar    0  UNK0        0.1404
     31 F          68.3933   91.1590   12.1737 F       0  UNK0       -0.2044
     32 C          66.0600   94.2704   12.7082 C.2     0  UNK0        0.2482
     33 O          66.2530   94.4008   14.1900 O.2     0  UNK0       -0.2727
     34 N          65.8900   95.4981   11.8631 N.am    0  UNK0       -0.2744
     35 C          65.9131   96.8560   12.4998 C.3     0  UNK0        0.1150
     36 C          65.7428   95.5363   10.7803 C.3     0  UNK0        0.1150
@<TRIPOS>BOND
     1    20    21    1
     2    21    22    1
     3    21    19    1
     4     1    19    1
     5     1     2    1
     6     2     3    2
     7     2     4   am
     8     4     5    1
     9     5    10    1
    10    10    11    1
    11    11    12    1
    12    12    13   ar
    13    13    14   ar
    14    14    15   ar
    15    15    16   ar
    16    16    17   ar
    17    17    18    1
    18     5     6    1
    19     6     7    2
    20     6     8   am
    21    23     8    1
    22    23    32    1
    23    32    33    2
    24    32    34   am
    25    34    35    1
    26    34    36    1
    27    23    24    1
    28    24    25   ar
    29    25    26   ar
    30    26    27   ar
    31    27    28    1
    32    27    29   ar
    33    29    30   ar
    34    30    31    1
    35     8     1    1
    36    30    24   ar
    37    18    10    1
    38    17    12   ar
    39     4     9    1
@<TRIPOS>MOLECULE
*****
 36 39 0 0 0
SMALL
GASTEIGER

@<TRIPOS>ATOM
      1 CA         60.7654   88.4640   10.8254 C.3     2  LEU2        0.1523
      2 C          60.6104   89.9366   11.0645 C.2     2  LEU2        0.2409
      3 O          59.4133   90.6621   10.5254 O.2     2  LEU2       -0.2733
      4 N          61.6525   90.6838   11.8428 N.am    1  UNK1       -0.2970
      5 C          62.8496   89.9584   12.3820 C.3     1  UNK1        0.1494
      6 C          63.0045   88.4857   12.1428 C.2     1  UNK1        0.2444
      7 O          64.2016   87.7602   12.6820 O.2     1  UNK1       -0.2731
      8 N          61.9624   87.7385   11.3646 N.am    2  LEU2       -0.2615
      9 H          61.5508   91.6504   11.9997 H       1  UNK1        0.1499
     10 C          63.8917   90.7056   13.1602 C.3     1  UNK1        0.0356
     11 C          65.0358   91.4835   12.5808 C.3     1  UNK1        0.0285
     12 C          65.8238   92.0648   13.7170 C.ar    1  UNK1       -0.0261
     13 C          67.0548   92.9212   13.7501 C.ar    1  UNK1       -0.0046
     14 C          67.6287   93.3589   15.0650 C.ar    1  UNK1       -0.0003
     15 C          66.9716   92.9403   16.3468 C.ar    1  UNK1       -0.0003
     16 C          65.7406   92.0839   16.3137 C.ar    1  UNK1       -0.0046
     17 C          65.1667   91.6461   14.9988 C.ar    1  UNK1       -0.0261
     18 C          63.9726   90.8061   14.6547 C.3     1  UNK1        0.0285
     19 CB         59.7233   87.7167   10.0471 C.3     2  LEU2        0.0292
     20 CD1        58.9277   86.8952    7.7143 C.3     2  LEU2        0.0001
     21 CG         59.5924   87.9336    8.5687 C.3     2  LEU2        0.0021
     22 CD2        60.1261   89.1889    7.9446 C.3     2  LEU2        0.0001
     23 C          62.1174   86.2658   11.1255 C.3     0  UNK0        0.1775
     24 C          62.6505   85.3814   12.2134 C.ar    0  UNK0        0.0321
     25 C          62.1650   85.5503   13.6226 C.ar    0  UNK0        0.0023
     26 C          62.6980   84.6658   14.7106 C.ar    0  UNK0        0.0295
     27 C          63.7166   83.6125   14.3894 C.ar    0  UNK0        0.1424
     28 F          64.2497   82.7281   15.4773 F       0  UNK0       -0.2041
     29 C          64.2021   83.4437   12.9802 C.ar    0  UNK0        0.0590
     30 C          63.6690   84.3281   11.8922 C.ar    0  UNK0        0.1404
     31 F          64.0999   84.1065   10.9120 F       0  UNK0       -0.2044
     32 C          61.7394   85.6775    9.7984 C.2     0  UNK0        0.2482
     33 O          60.4426   84.9389    9.6475 O.2     0  UNK0       -0.2727
     34 N          62.6582   85.8279    8.6223 N.am    0  UNK0       -0.2744
     35 C          62.2801   85.2396    7.2953 C.3     0  UNK0        0.1150
     36 C          63.6242   86.3399    8.6031 C.3     0  UNK0        0.1150
@<TRIPOS>BOND
     1    20    21    1
     2    21    22    1
     3    21    19    1
     4     1    19    1
     5     1     2    1
     6     2     3    2
     7     2     4   am
     8     4     5    1
     9     5    10    1
    10    10    11    1
    11    11    12    1
    12    12    13   ar
    13    13    14   ar
    14    14    15   ar
    15    15    16   ar
    16    16    17   ar
    17    17    18    1
    18     5     6    1
    19     6     7    2
    20     6     8   am
    21    23     8    1
    22    23    32    1
    23    32    33    2
    24    32    34   am
    25    34    35    1
    26    34    36    1
    27    23    24    1
    28    24    25   ar
    29    25    26   ar
    30    26    27   ar
    31    27    28    1
    32    27    29   ar
    33    29    30   ar
    34    30    31    1
    35     8     1    1
    36    30    24   ar
    37    18    10    1
    38    17    12   ar
    39     4     9    1
