@<TRIPOS>MOLECULE
*****
 37 41 0 0 0
SMALL
GASTEIGER

@<TRIPOS>ATOM
      1 C          63.8341   86.5589   13.6531 C.3     1  UNL1        0.0743
      2 C          64.2630   86.8233   15.0660 C.3     1  UNL1        0.0369
      3 C          64.3334   88.2317   15.5773 C.3     1  UNL1        0.0741
      4 N          63.9750   89.3757   14.6757 N.3     1  UNL1       -0.2688
      5 C          63.5461   89.1113   13.2629 C.3     1  UNL1        0.0741
      6 C          63.4756   87.7030   12.7516 C.3     1  UNL1        0.0369
      7 O          61.6580   84.7252   14.6031 O.2     1  UNL1       -0.2747
      8 C          62.6756   84.2337   13.6168 C.2     1  UNL1        0.2267
      9 N          63.7636   85.1505   13.1418 N.am    1  UNL1       -0.3056
     10 H          64.4315   84.8279   12.4944 H       1  UNL1        0.1494
     11 C          62.6052   82.8253   13.1054 C.3     1  UNL1        0.1033
     12 C          62.5811   81.5510   12.3144 C.3     1  UNL1        0.0311
     13 C          62.3590   80.4164   13.2700 C.3     1  UNL1        0.0694
     14 N          62.2458   80.9894   14.6516 N.3     1  UNL1       -0.2968
     15 C          62.3980   82.4781   14.5499 C.3     1  UNL1        0.0814
     16 H          62.9805   80.6063   15.2465 H       1  UNL1        0.1233
     17 C          62.8271   83.4669   11.7678 C.ar    1  UNL1       -0.0133
     18 C          61.9878   84.6374   11.3490 C.ar    1  UNL1       -0.0038
     19 C          62.2097   85.2791   10.0114 C.ar    1  UNL1       -0.0003
     20 C          63.2709   84.7501    9.0926 C.ar    1  UNL1       -0.0000
     21 C          64.1102   83.5795    9.5114 C.ar    1  UNL1       -0.0003
     22 C          63.8883   82.9379   10.8491 C.ar    1  UNL1       -0.0038
     23 C          64.0454   90.7841   15.1871 C.3     1  UNL1        0.0992
     24 C          65.2662   91.6161   14.9274 C.ar    1  UNL1       -0.0031
     25 C          65.9306   92.3460   16.0569 C.ar    1  UNL1       -0.0027
     26 C          67.1514   93.1781   15.7971 C.ar    1  UNL1        0.0029
     27 C          67.7078   93.2802   14.4079 C.ar    1  UNL1        0.0375
     28 C          67.0434   92.5502   13.2784 C.ar    1  UNL1        0.1451
     29 C          65.8226   91.7182   13.5381 C.ar    1  UNL1        0.0346
     30 O          67.5997   92.6523   11.8892 O.3     1  UNL1       -0.4527
     31 C          67.1492   93.7572   10.9801 C.ar    1  UNL1        0.1557
     32 C          66.2272   94.8227   11.4945 C.ar    1  UNL1        0.0384
     33 C          65.7767   95.9275   10.5855 C.ar    1  UNL1        0.0032
     34 C          66.2480   95.9668    9.1621 C.ar    1  UNL1        0.0011
     35 C          67.1699   94.9012    8.6476 C.ar    1  UNL1        0.0145
     36 C          67.6205   93.7964    9.5566 C.ar    1  UNL1        0.0921
     37 CL         68.5424   92.7308    9.0422 Cl      1  UNL1       -0.0791
@<TRIPOS>BOND
     1     7     8    2
     2     8     9   am
     3     9     1    1
     4     1     2    1
     5     2     3    1
     6     3     4    1
     7     4    23    1
     8    23    24    1
     9    24    25   ar
    10    25    26   ar
    11    26    27   ar
    12    27    28   ar
    13    28    30    1
    14    30    31    1
    15    31    32   ar
    16    32    33   ar
    17    33    34   ar
    18    34    35   ar
    19    35    36   ar
    20    36    37    1
    21    28    29   ar
    22     4     5    1
    23     5     6    1
    24     8    11    1
    25    11    17    1
    26    17    18   ar
    27    18    19   ar
    28    19    20   ar
    29    20    21   ar
    30    21    22   ar
    31    11    12    1
    32    12    13    1
    33    13    14    1
    34    14    15    1
    35     6     1    1
    36    15    11    1
    37    29    24   ar
    38    22    17   ar
    39    36    31   ar
    40     9    10    1
    41    14    16    1
@<TRIPOS>MOLECULE
*****
 37 41 0 0 0
SMALL
GASTEIGER

@<TRIPOS>ATOM
      1 C          63.8352   86.7211   13.6513 C.3     1  UNL1        0.0743
      2 C          64.2149   86.9650   15.0818 C.3     1  UNL1        0.0369
      3 C          64.2479   88.3644   15.6207 C.3     1  UNL1        0.0741
      4 N          63.9014   89.5199   14.7292 N.3     1  UNL1       -0.2688
      5 C          63.5218   89.2759   13.2987 C.3     1  UNL1        0.0741
      6 C          63.4887   87.8765   12.7598 C.3     1  UNL1        0.0369
      7 O          61.7349   84.7988   14.5964 O.2     1  UNL1       -0.2747
      8 C          62.7520   84.3605   13.5848 C.2     1  UNL1        0.2267
      9 N          63.8022   85.3216   13.1122 N.am    1  UNL1       -0.3056
     10 H          64.4697   85.0339   12.4483 H       1  UNL1        0.1494
     11 C          62.7189   82.9610   13.0458 C.3     1  UNL1        0.1033
     12 C          62.7097   81.7035   12.2281 C.3     1  UNL1        0.0311
     13 C          62.5968   80.5402   13.1682 C.3     1  UNL1        0.0694
     14 N          62.5363   81.0787   14.5669 N.3     1  UNL1       -0.2968
     15 C          62.6117   82.5748   14.4912 C.3     1  UNL1        0.0814
     16 H          63.3212   80.7196   15.1103 H       1  UNL1        0.1233
     17 C          62.8330   83.6398   11.7130 C.ar    1  UNL1       -0.0133
     18 C          63.8445   83.1636   10.7130 C.ar    1  UNL1       -0.0038
     19 C          63.9587   83.8424    9.3802 C.ar    1  UNL1       -0.0003
     20 C          63.0612   84.9974    9.0474 C.ar    1  UNL1       -0.0000
     21 C          62.0497   85.4735   10.0474 C.ar    1  UNL1       -0.0003
     22 C          61.9355   84.7948   11.3803 C.ar    1  UNL1       -0.0038
     23 C          63.9345   90.9193   15.2682 C.3     1  UNL1        0.0992
     24 C          65.1269   91.7930   15.0139 C.ar    1  UNL1       -0.0031
     25 C          66.2468   91.8424   16.0106 C.ar    1  UNL1       -0.0027
     26 C          67.4393   92.7161   15.7561 C.ar    1  UNL1        0.0029
     27 C          67.5118   93.5405   14.5051 C.ar    1  UNL1        0.0375
     28 C          66.3919   93.4911   13.5084 C.ar    1  UNL1        0.1451
     29 C          65.1994   92.6174   13.7628 C.ar    1  UNL1        0.0346
     30 O          66.4644   94.3155   12.2574 O.3     1  UNL1       -0.4527
     31 C          67.1379   93.7658   11.0349 C.ar    1  UNL1        0.1557
     32 C          67.5978   92.3382   11.0100 C.ar    1  UNL1        0.0384
     33 C          68.2713   91.7885    9.7876 C.ar    1  UNL1        0.0032
     34 C          68.4848   92.6663    8.5902 C.ar    1  UNL1        0.0011
     35 C          68.0248   94.0938    8.6152 C.ar    1  UNL1        0.0145
     36 C          67.3514   94.6436    9.8375 C.ar    1  UNL1        0.0921
     37 CL         66.8914   96.0711    9.8625 Cl      1  UNL1       -0.0791
@<TRIPOS>BOND
     1     7     8    2
     2     8     9   am
     3     9     1    1
     4     1     2    1
     5     2     3    1
     6     3     4    1
     7     4    23    1
     8    23    24    1
     9    24    25   ar
    10    25    26   ar
    11    26    27   ar
    12    27    28   ar
    13    28    30    1
    14    30    31    1
    15    31    32   ar
    16    32    33   ar
    17    33    34   ar
    18    34    35   ar
    19    35    36   ar
    20    36    37    1
    21    28    29   ar
    22     4     5    1
    23     5     6    1
    24     8    11    1
    25    11    17    1
    26    17    18   ar
    27    18    19   ar
    28    19    20   ar
    29    20    21   ar
    30    21    22   ar
    31    11    12    1
    32    12    13    1
    33    13    14    1
    34    14    15    1
    35     6     1    1
    36    15    11    1
    37    29    24   ar
    38    22    17   ar
    39    36    31   ar
    40     9    10    1
    41    14    16    1
@<TRIPOS>MOLECULE
*****
 37 41 0 0 0
SMALL
GASTEIGER

@<TRIPOS>ATOM
      1 C          63.6165   90.9996   11.7776 C.3     1  UNL1        0.0743
      2 C          63.1087   89.8603   12.6106 C.3     1  UNL1        0.0369
      3 C          62.1729   88.8524   12.0119 C.3     1  UNL1        0.0741
      4 N          61.7449   88.9840   10.5803 N.3     1  UNL1       -0.2688
      5 C          62.2528   90.1233    9.7473 C.3     1  UNL1        0.0741
      6 C          63.1886   91.1312   10.3460 C.3     1  UNL1        0.0369
      7 O          65.4019   90.2195   14.0588 O.2     1  UNL1       -0.2747
      8 C          65.4451   91.6175   13.5169 C.2     1  UNL1        0.2267
      9 N          64.5524   92.0076   12.3763 N.am    1  UNL1       -0.3056
     10 H          64.5807   92.9251   12.0206 H       1  UNL1        0.1494
     11 C          66.3809   92.6254   14.1156 C.3     1  UNL1        0.1033
     12 C          67.3774   93.7058   14.4152 C.3     1  UNL1        0.0311
     13 C          67.5075   93.8160   15.9054 C.3     1  UNL1        0.0694
     14 N          66.5914   92.8038   16.5268 N.3     1  UNL1       -0.2968
     15 C          65.8952   92.0679   15.4206 C.3     1  UNL1        0.0814
     16 H          65.9042   93.2743   17.1157 H       1  UNL1        0.1233
     17 C          66.6710   92.9721   12.6853 C.ar    1  UNL1       -0.0133
     18 C          66.2271   94.2924   12.1288 C.ar    1  UNL1       -0.0038
     19 C          66.5172   94.6392   10.6985 C.ar    1  UNL1       -0.0003
     20 C          67.2512   93.6656    9.8247 C.ar    1  UNL1       -0.0000
     21 C          67.6952   92.3453   10.3813 C.ar    1  UNL1       -0.0003
     22 C          67.4051   91.9985   11.8116 C.ar    1  UNL1       -0.0038
     23 C          60.8091   87.9760    9.9816 C.3     1  UNL1        0.0992
     24 C          61.3563   86.7770    9.2656 C.ar    1  UNL1       -0.0031
     25 C          60.8972   86.4608    7.8730 C.ar    1  UNL1       -0.0027
     26 C          61.4445   85.2616    7.1570 C.ar    1  UNL1        0.0029
     27 C          62.4510   84.3788    7.8335 C.ar    1  UNL1        0.0375
     28 C          62.9101   84.6951    9.2261 C.ar    1  UNL1        0.1451
     29 C          62.3628   85.8941    9.9421 C.ar    1  UNL1        0.0346
     30 O          63.9165   83.8123    9.9026 O.3     1  UNL1       -0.4527
     31 C          63.6212   83.2391   11.2570 C.ar    1  UNL1        0.1557
     32 C          63.7242   84.1058   12.4769 C.ar    1  UNL1        0.0384
     33 C          63.4288   83.5327   13.8312 C.ar    1  UNL1        0.0032
     34 C          63.0305   82.0929   13.9657 C.ar    1  UNL1        0.0011
     35 C          62.9275   81.2261   12.7458 C.ar    1  UNL1        0.0145
     36 C          63.2228   81.7992   11.3914 C.ar    1  UNL1        0.0921
     37 CL         63.1198   80.9325   10.1715 Cl      1  UNL1       -0.0791
@<TRIPOS>BOND
     1     7     8    2
     2     8     9   am
     3     9     1    1
     4     1     2    1
     5     2     3    1
     6     3     4    1
     7     4    23    1
     8    23    24    1
     9    24    25   ar
    10    25    26   ar
    11    26    27   ar
    12    27    28   ar
    13    28    30    1
    14    30    31    1
    15    31    32   ar
    16    32    33   ar
    17    33    34   ar
    18    34    35   ar
    19    35    36   ar
    20    36    37    1
    21    28    29   ar
    22     4     5    1
    23     5     6    1
    24     8    11    1
    25    11    17    1
    26    17    18   ar
    27    18    19   ar
    28    19    20   ar
    29    20    21   ar
    30    21    22   ar
    31    11    12    1
    32    12    13    1
    33    13    14    1
    34    14    15    1
    35     6     1    1
    36    15    11    1
    37    29    24   ar
    38    22    17   ar
    39    36    31   ar
    40     9    10    1
    41    14    16    1
@<TRIPOS>MOLECULE
*****
 37 41 0 0 0
SMALL
GASTEIGER

@<TRIPOS>ATOM
      1 C          63.4278   91.2641   11.6234 C.3     1  UNL1        0.0743
      2 C          63.6306   90.1271   12.5805 C.3     1  UNL1        0.0369
      3 C          62.9556   88.8104   12.3346 C.3     1  UNL1        0.0741
      4 N          62.0779   88.6306   11.1316 N.3     1  UNL1       -0.2688
      5 C          61.8751   89.7676   10.1745 C.3     1  UNL1        0.0741
      6 C          62.5501   91.0843   10.4204 C.3     1  UNL1        0.0369
      7 O          65.8473   92.0313   10.0241 O.2     1  UNL1       -0.2747
      8 C          65.3125   92.9645   11.0696 C.2     1  UNL1        0.2267
      9 N          64.1028   92.5809   11.8693 N.am    1  UNL1       -0.3056
     10 H          63.7519   93.1935   12.5555 H       1  UNL1        0.1494
     11 C          65.9875   94.2813   11.3155 C.3     1  UNL1        0.1033
     12 C          66.7912   95.4492   11.8056 C.3     1  UNL1        0.0311
     13 C          66.5314   96.6078   10.8890 C.3     1  UNL1        0.0694
     14 N          65.5672   96.1560    9.8326 N.3     1  UNL1       -0.2968
     15 C          65.2311   94.7182   10.0961 C.3     1  UNL1        0.0814
     16 H          65.9950   96.2482    8.9112 H       1  UNL1        0.1233
     17 C          66.6029   93.5692   12.4835 C.ar    1  UNL1       -0.0133
     18 C          66.4290   94.1137   13.8703 C.ar    1  UNL1       -0.0038
     19 C          67.0444   93.4016   15.0383 C.ar    1  UNL1       -0.0003
     20 C          67.8336   92.1449   14.8195 C.ar    1  UNL1       -0.0000
     21 C          68.0074   91.6003   13.4327 C.ar    1  UNL1       -0.0003
     22 C          67.3921   92.3125   12.2647 C.ar    1  UNL1       -0.0038
     23 C          61.4029   87.3137   10.8858 C.3     1  UNL1        0.0992
     24 C          62.1569   86.1954   10.2295 C.ar    1  UNL1       -0.0031
     25 C          62.2827   86.1510    8.7354 C.ar    1  UNL1       -0.0027
     26 C          63.0368   85.0326    8.0792 C.ar    1  UNL1        0.0029
     27 C          63.6650   83.9587    8.9169 C.ar    1  UNL1        0.0375
     28 C          63.5392   84.0031   10.4110 C.ar    1  UNL1        0.1451
     29 C          62.7852   85.1214   11.0673 C.ar    1  UNL1        0.0346
     30 O          64.1675   82.9292   11.2488 O.3     1  UNL1       -0.4527
     31 C          63.3541   82.2170   12.2886 C.ar    1  UNL1        0.1557
     32 C          63.0841   82.8744   13.6096 C.ar    1  UNL1        0.0384
     33 C          62.2708   82.1623   14.6494 C.ar    1  UNL1        0.0032
     34 C          61.7275   80.7927   14.3684 C.ar    1  UNL1        0.0011
     35 C          61.9975   80.1353   13.0474 C.ar    1  UNL1        0.0145
     36 C          62.8108   80.8474   12.0076 C.ar    1  UNL1        0.0921
     37 CL         63.0809   80.1899   10.6867 Cl      1  UNL1       -0.0791
@<TRIPOS>BOND
     1     7     8    2
     2     8     9   am
     3     9     1    1
     4     1     2    1
     5     2     3    1
     6     3     4    1
     7     4    23    1
     8    23    24    1
     9    24    25   ar
    10    25    26   ar
    11    26    27   ar
    12    27    28   ar
    13    28    30    1
    14    30    31    1
    15    31    32   ar
    16    32    33   ar
    17    33    34   ar
    18    34    35   ar
    19    35    36   ar
    20    36    37    1
    21    28    29   ar
    22     4     5    1
    23     5     6    1
    24     8    11    1
    25    11    17    1
    26    17    18   ar
    27    18    19   ar
    28    19    20   ar
    29    20    21   ar
    30    21    22   ar
    31    11    12    1
    32    12    13    1
    33    13    14    1
    34    14    15    1
    35     6     1    1
    36    15    11    1
    37    29    24   ar
    38    22    17   ar
    39    36    31   ar
    40     9    10    1
    41    14    16    1
@<TRIPOS>MOLECULE
*****
 37 41 0 0 0
SMALL
GASTEIGER

@<TRIPOS>ATOM
      1 C          63.4889   91.0146   11.6237 C.3     1  UNL1        0.0743
      2 C          63.5796   89.8205   12.5269 C.3     1  UNL1        0.0369
      3 C          62.9801   88.5125   12.1032 C.3     1  UNL1        0.0741
      4 N          62.2898   88.3986   10.7764 N.3     1  UNL1       -0.2688
      5 C          62.1991   89.5927    9.8732 C.3     1  UNL1        0.0741
      6 C          62.7986   90.9007   10.2969 C.3     1  UNL1        0.0369
      7 O          65.8946   92.0953   10.1937 O.2     1  UNL1       -0.2747
      8 C          65.2913   92.8630   11.3324 C.2     1  UNL1        0.2267
      9 N          64.0885   92.3228   12.0474 N.am    1  UNL1       -0.3056
     10 H          63.6925   92.8267   12.7947 H       1  UNL1        0.1494
     11 C          65.8909   94.1712   11.7560 C.3     1  UNL1        0.1033
     12 C          66.6192   95.3083   12.4090 C.3     1  UNL1        0.0311
     13 C          66.3281   96.5550   11.6273 C.3     1  UNL1        0.0694
     14 N          65.4198   96.1882   10.4912 N.3     1  UNL1       -0.2968
     15 C          65.1496   94.7150   10.5708 C.3     1  UNL1        0.0814
     16 H          65.8695   96.4102    9.6030 H       1  UNL1        0.1233
     17 C          66.5068   93.3538   12.8527 C.ar    1  UNL1       -0.0133
     18 C          66.1185   93.6006   14.2804 C.ar    1  UNL1       -0.0038
     19 C          66.7344   92.7832   15.3772 C.ar    1  UNL1       -0.0003
     20 C          67.7385   91.7192   15.0461 C.ar    1  UNL1       -0.0000
     21 C          68.1268   91.4725   13.6184 C.ar    1  UNL1       -0.0003
     22 C          67.5109   92.2898   12.5216 C.ar    1  UNL1       -0.0038
     23 C          61.6902   87.0904   10.3527 C.3     1  UNL1        0.0992
     24 C          62.4496   85.8142   10.5633 C.ar    1  UNL1       -0.0031
     25 C          62.9601   85.0417    9.3831 C.ar    1  UNL1       -0.0027
     26 C          63.7195   83.7654    9.5937 C.ar    1  UNL1        0.0029
     27 C          63.9685   83.2615   10.9844 C.ar    1  UNL1        0.0375
     28 C          63.4580   84.0339   12.1645 C.ar    1  UNL1        0.1451
     29 C          62.6986   85.3102   11.9540 C.ar    1  UNL1        0.0346
     30 O          63.7070   83.5301   13.5552 O.3     1  UNL1       -0.4527
     31 C          63.4192   84.4109   14.7348 C.ar    1  UNL1        0.1557
     32 C          62.0811   84.3472   15.4097 C.ar    1  UNL1        0.0384
     33 C          61.7933   85.2280   16.5892 C.ar    1  UNL1        0.0032
     34 C          62.8436   86.1724   17.0940 C.ar    1  UNL1        0.0011
     35 C          64.1818   86.2361   16.4191 C.ar    1  UNL1        0.0145
     36 C          64.4696   85.3553   15.2396 C.ar    1  UNL1        0.0921
     37 CL         65.8077   85.4190   14.5648 Cl      1  UNL1       -0.0791
@<TRIPOS>BOND
     1     7     8    2
     2     8     9   am
     3     9     1    1
     4     1     2    1
     5     2     3    1
     6     3     4    1
     7     4    23    1
     8    23    24    1
     9    24    25   ar
    10    25    26   ar
    11    26    27   ar
    12    27    28   ar
    13    28    30    1
    14    30    31    1
    15    31    32   ar
    16    32    33   ar
    17    33    34   ar
    18    34    35   ar
    19    35    36   ar
    20    36    37    1
    21    28    29   ar
    22     4     5    1
    23     5     6    1
    24     8    11    1
    25    11    17    1
    26    17    18   ar
    27    18    19   ar
    28    19    20   ar
    29    20    21   ar
    30    21    22   ar
    31    11    12    1
    32    12    13    1
    33    13    14    1
    34    14    15    1
    35     6     1    1
    36    15    11    1
    37    29    24   ar
    38    22    17   ar
    39    36    31   ar
    40     9    10    1
    41    14    16    1
@<TRIPOS>MOLECULE
*****
 37 41 0 0 0
SMALL
GASTEIGER

@<TRIPOS>ATOM
      1 C          60.0844   92.1480    3.9840 C.3     1  UNL1        0.0743
      2 C          58.6318   92.0053    4.3296 C.3     1  UNL1        0.0369
      3 C          58.1979   90.9847    5.3395 C.3     1  UNL1        0.0741
      4 N          59.2166   90.1068    6.0040 N.3     1  UNL1       -0.2688
      5 C          60.6693   90.2495    5.6584 C.3     1  UNL1        0.0741
      6 C          61.1032   91.2701    4.6484 C.3     1  UNL1        0.0369
      7 O          62.5232   91.6566    2.3074 O.2     1  UNL1       -0.2747
      8 C          61.7378   92.9229    2.1357 C.2     1  UNL1        0.2267
      9 N          60.5184   93.1686    2.9740 N.am    1  UNL1       -0.3056
     10 H          60.0029   93.9997    2.8613 H       1  UNL1        0.1494
     11 C          62.1717   93.9435    1.1257 C.3     1  UNL1        0.1033
     12 C          62.3265   94.9056   -0.0147 C.3     1  UNL1        0.0311
     13 C          63.6666   95.5667    0.1153 C.3     1  UNL1        0.0694
     14 N          64.3401   95.0132    1.3360 N.3     1  UNL1       -0.2968
     15 C          63.4162   94.0101    1.9605 C.3     1  UNL1        0.0814
     16 H          64.5314   95.7660    1.9971 H       1  UNL1        0.1233
     17 C          60.8365   93.6636    0.5021 C.ar    1  UNL1       -0.0133
     18 C          60.5505   92.3123   -0.0829 C.ar    1  UNL1       -0.0038
     19 C          59.2153   92.0324   -0.7065 C.ar    1  UNL1       -0.0003
     20 C          58.1661   93.1037   -0.7451 C.ar    1  UNL1       -0.0000
     21 C          58.4521   94.4549   -0.1600 C.ar    1  UNL1       -0.0003
     22 C          59.7873   94.7349    0.4636 C.ar    1  UNL1       -0.0038
     23 C          58.7827   89.0862    7.0140 C.3     1  UNL1        0.0992
     24 C          59.7538   88.5903    8.0440 C.ar    1  UNL1       -0.0031
     25 C          60.4075   87.2509    7.8750 C.ar    1  UNL1       -0.0027
     26 C          61.3787   86.7550    8.9051 C.ar    1  UNL1        0.0029
     27 C          61.6961   87.5985   10.1041 C.ar    1  UNL1        0.0375
     28 C          61.0423   88.9379   10.2731 C.ar    1  UNL1        0.1451
     29 C          60.0712   89.4338    9.2431 C.ar    1  UNL1        0.0346
     30 O          61.3597   89.7814   11.4721 O.3     1  UNL1       -0.4527
     31 C          62.6233   90.5890   11.5078 C.ar    1  UNL1        0.1557
     32 C          63.1157   91.2666   10.2635 C.ar    1  UNL1        0.0384
     33 C          64.3793   92.0741   10.2991 C.ar    1  UNL1        0.0032
     34 C          65.1504   92.2041   11.5791 C.ar    1  UNL1        0.0011
     35 C          64.6579   91.5265   12.8235 C.ar    1  UNL1        0.0145
     36 C          63.3944   90.7190   12.7878 C.ar    1  UNL1        0.0921
     37 CL         62.9020   90.0414   14.0322 Cl      1  UNL1       -0.0791
@<TRIPOS>BOND
     1     7     8    2
     2     8     9   am
     3     9     1    1
     4     1     2    1
     5     2     3    1
     6     3     4    1
     7     4    23    1
     8    23    24    1
     9    24    25   ar
    10    25    26   ar
    11    26    27   ar
    12    27    28   ar
    13    28    30    1
    14    30    31    1
    15    31    32   ar
    16    32    33   ar
    17    33    34   ar
    18    34    35   ar
    19    35    36   ar
    20    36    37    1
    21    28    29   ar
    22     4     5    1
    23     5     6    1
    24     8    11    1
    25    11    17    1
    26    17    18   ar
    27    18    19   ar
    28    19    20   ar
    29    20    21   ar
    30    21    22   ar
    31    11    12    1
    32    12    13    1
    33    13    14    1
    34    14    15    1
    35     6     1    1
    36    15    11    1
    37    29    24   ar
    38    22    17   ar
    39    36    31   ar
    40     9    10    1
    41    14    16    1
