@<TRIPOS>MOLECULE
*****
 23 27 0 0 0
SMALL
GASTEIGER

@<TRIPOS>ATOM
      1 C          60.5676   87.9453    9.0185 C.3     1  UNL1        0.0158
      2 C          61.2595   88.8716    9.9741 C.3     1  UNL1        0.0065
      3 C          62.0629   88.3130   11.1111 C.3     1  UNL1        0.0592
      4 C          62.1744   86.8282   11.2923 C.3     1  UNL1        0.2209
      5 C          61.4825   85.9020   10.3367 C.3     1  UNL1        0.0592
      6 C          60.6791   86.4605    9.1998 C.3     1  UNL1        0.0065
      7 O          62.9177   87.6261   12.3223 O.3     1  UNL1       -0.1952
      8 O          63.5782   86.6648   13.2655 O.3     1  UNL1       -0.1952
      9 C          63.2432   85.2727   12.8184 C.3     1  UNL1        0.2205
     10 O          62.3755   85.3737   11.5989 O.3     1  UNL1       -0.3092
     11 C          62.8259   83.9466   12.2549 C.3     1  UNL1        0.0544
     12 C          63.2789   82.6765   12.9119 C.3     1  UNL1        0.0049
     13 C          64.1491   82.7325   14.1324 C.3     1  UNL1        0.0003
     14 C          63.7319   81.4065   13.5689 C.3     1  UNL1        0.0000
     15 C          62.8617   81.3506   12.3484 C.3     1  UNL1        0.0003
     16 C          62.4087   82.6206   11.6914 C.3     1  UNL1        0.0049
     17 C          64.1340   83.8298   14.0929 C.3     1  UNL1        0.0049
     18 C          64.1134   85.3287   14.0389 C.3     1  UNL1        0.0544
     19 C          64.5663   84.0585   14.6958 C.3     1  UNL1        0.0049
     20 N          58.5988   87.7326    7.3367 N.3     1  UNL1       -0.3211
     21 C          59.7643   88.5038    7.8815 C.3     1  UNL1        0.0651
     22 H          58.1713   88.2568    6.5733 H       1  UNL1        0.1189
     23 H          57.9114   87.5877    8.0763 H       1  UNL1        0.1189
@<TRIPOS>BOND
     1    20    21    1
     2     1    21    1
     3     1     2    1
     4     2     3    1
     5     4     3    1
     6     4     5    1
     7     5     6    1
     8     4     7    1
     9     7     8    1
    10     8     9    1
    11     9    10    1
    12     9    11    1
    13    11    12    1
    14    12    13    1
    15    13    14    1
    16    14    15    1
    17    15    16    1
    18    15    17    1
    19    17    18    1
    20    18    19    1
    21     6     1    1
    22    18     9    1
    23    10     4    1
    24    16    11    1
    25    19    13    1
    26    20    22    1
    27    20    23    1
@<TRIPOS>MOLECULE
*****
 23 27 0 0 0
SMALL
GASTEIGER

@<TRIPOS>ATOM
      1 C          63.5617   82.7845   13.0263 C.3     1  UNL1        0.0158
      2 C          64.1088   83.9242   13.8336 C.3     1  UNL1        0.0065
      3 C          63.7929   85.3382   13.4450 C.3     1  UNL1        0.0592
      4 C          62.9299   85.6124   12.2492 C.3     1  UNL1        0.2209
      5 C          62.3828   84.4727   11.4420 C.3     1  UNL1        0.0592
      6 C          62.6987   83.0588   11.8305 C.3     1  UNL1        0.0065
      7 O          63.4029   86.8478   12.9564 O.3     1  UNL1       -0.1952
      8 O          62.8509   88.0382   12.2295 O.3     1  UNL1       -0.1952
      9 C          62.0368   87.5385   11.0730 C.3     1  UNL1        0.2205
     10 O          62.0856   86.0393   11.0852 O.3     1  UNL1       -0.3092
     11 C          61.2601   86.8937    9.9635 C.3     1  UNL1        0.0544
     12 C          60.5261   87.7439    8.9693 C.3     1  UNL1        0.0049
     13 C          60.5687   89.2388    9.0848 C.3     1  UNL1        0.0003
     14 C          59.7920   88.5941    7.9753 C.3     1  UNL1        0.0000
     15 C          59.7495   87.0992    7.8598 C.3     1  UNL1        0.0003
     16 C          60.4835   86.2490    8.8539 C.3     1  UNL1        0.0049
     17 C          61.2072   89.1520    9.9739 C.3     1  UNL1        0.0049
     18 C          62.0794   89.0334   11.1885 C.3     1  UNL1        0.0544
     19 C          61.3453   89.8836   10.1943 C.3     1  UNL1        0.0049
     20 N          62.8675   80.5561   14.1675 N.3     1  UNL1       -0.3211
     21 C          63.8775   81.3706   13.4149 C.3     1  UNL1        0.0651
     22 H          63.2463   79.6263   14.3472 H       1  UNL1        0.1189
     23 H          62.0151   80.4748   13.6133 H       1  UNL1        0.1189
@<TRIPOS>BOND
     1    20    21    1
     2     1    21    1
     3     1     2    1
     4     2     3    1
     5     4     3    1
     6     4     5    1
     7     5     6    1
     8     4     7    1
     9     7     8    1
    10     8     9    1
    11     9    10    1
    12     9    11    1
    13    11    12    1
    14    12    13    1
    15    13    14    1
    16    14    15    1
    17    15    16    1
    18    15    17    1
    19    17    18    1
    20    18    19    1
    21     6     1    1
    22    18     9    1
    23    10     4    1
    24    16    11    1
    25    19    13    1
    26    20    22    1
    27    20    23    1
@<TRIPOS>MOLECULE
*****
 23 27 0 0 0
SMALL
GASTEIGER

@<TRIPOS>ATOM
      1 C          63.1802   82.7301   13.1654 C.3     1  UNL1        0.0158
      2 C          63.8511   83.2612   14.3974 C.3     1  UNL1        0.0065
      3 C          64.0463   84.7387   14.5674 C.3     1  UNL1        0.0592
      4 C          63.5705   85.6851   13.5054 C.3     1  UNL1        0.2209
      5 C          62.8996   85.1540   12.2734 C.3     1  UNL1        0.0592
      6 C          62.7044   83.6765   12.1034 C.3     1  UNL1        0.0065
      7 O          64.2209   86.3596   14.6768 O.3     1  UNL1       -0.1952
      8 O          64.2019   87.8389   14.4292 O.3     1  UNL1       -0.1952
      9 C          63.5399   88.0787   13.1047 C.3     1  UNL1        0.2205
     10 O          63.1497   86.7476   12.5338 O.3     1  UNL1       -0.3092
     11 C          62.8611   88.1628   11.7697 C.3     1  UNL1        0.0544
     12 C          62.6298   89.4990   11.1287 C.3     1  UNL1        0.0049
     13 C          63.0774   90.7512   11.8227 C.3     1  UNL1        0.0003
     14 C          62.3986   90.8353   10.4878 C.3     1  UNL1        0.0000
     15 C          61.9510   89.5831    9.7938 C.3     1  UNL1        0.0003
     16 C          62.1822   88.2468   10.4347 C.3     1  UNL1        0.0049
     17 C          63.4621   90.1509   12.6579 C.3     1  UNL1        0.0049
     18 C          63.9875   89.3309   13.7987 C.3     1  UNL1        0.0544
     19 C          63.7562   90.6672   13.1577 C.3     1  UNL1        0.0049
     20 N          63.1332   80.3361   14.1736 N.3     1  UNL1       -0.3211
     21 C          62.9850   81.2526   12.9955 C.3     1  UNL1        0.0651
     22 H          62.9674   79.3738   13.8787 H       1  UNL1        0.1189
     23 H          62.4559   80.5931   14.8916 H       1  UNL1        0.1189
@<TRIPOS>BOND
     1    20    21    1
     2     1    21    1
     3     1     2    1
     4     2     3    1
     5     4     3    1
     6     4     5    1
     7     5     6    1
     8     4     7    1
     9     7     8    1
    10     8     9    1
    11     9    10    1
    12     9    11    1
    13    11    12    1
    14    12    13    1
    15    13    14    1
    16    14    15    1
    17    15    16    1
    18    15    17    1
    19    17    18    1
    20    18    19    1
    21     6     1    1
    22    18     9    1
    23    10     4    1
    24    16    11    1
    25    19    13    1
    26    20    22    1
    27    20    23    1
@<TRIPOS>MOLECULE
*****
 23 27 0 0 0
SMALL
GASTEIGER

@<TRIPOS>ATOM
      1 C          60.3644   87.6664    8.8387 C.3     1  UNL1        0.0158
      2 C          60.9617   88.8996    9.4491 C.3     1  UNL1        0.0065
      3 C          61.8450   88.7866   10.6562 C.3     1  UNL1        0.0592
      4 C          62.1310   87.4405   11.2528 C.3     1  UNL1        0.2209
      5 C          61.5338   86.2073   10.6424 C.3     1  UNL1        0.0592
      6 C          60.6505   86.3203    9.4354 C.3     1  UNL1        0.0065
      7 O          62.7956   88.5788   11.9688 O.3     1  UNL1       -0.1952
      8 O          63.5801   88.0112   13.1143 O.3     1  UNL1       -0.1952
      9 C          63.4005   86.5220   13.1064 C.3     1  UNL1        0.2205
     10 O          62.5049   86.1693   11.9559 O.3     1  UNL1       -0.3092
     11 C          63.1295   85.0528   12.9723 C.3     1  UNL1        0.0544
     12 C          63.7385   84.0860   13.9442 C.3     1  UNL1        0.0049
     13 C          64.6185   84.5885   15.0501 C.3     1  UNL1        0.0003
     14 C          64.3475   83.1194   14.9161 C.3     1  UNL1        0.0000
     15 C          63.4675   82.6169   13.8102 C.3     1  UNL1        0.0003
     16 C          62.8585   83.5836   12.8383 C.3     1  UNL1        0.0049
     17 C          64.4756   85.6181   14.6960 C.3     1  UNL1        0.0049
     18 C          64.2805   87.0245   14.2123 C.3     1  UNL1        0.0544
     19 C          64.8895   86.0578   15.1842 C.3     1  UNL1        0.0049
     20 N          58.4098   86.7582    7.3880 N.3     1  UNL1       -0.3211
     21 C          59.4812   87.7794    7.6316 C.3     1  UNL1        0.0651
     22 H          57.9097   86.9884    6.5293 H       1  UNL1        0.1189
     23 H          57.7571   86.7566    8.1717 H       1  UNL1        0.1189
@<TRIPOS>BOND
     1    20    21    1
     2     1    21    1
     3     1     2    1
     4     2     3    1
     5     4     3    1
     6     4     5    1
     7     5     6    1
     8     4     7    1
     9     7     8    1
    10     8     9    1
    11     9    10    1
    12     9    11    1
    13    11    12    1
    14    12    13    1
    15    13    14    1
    16    14    15    1
    17    15    16    1
    18    15    17    1
    19    17    18    1
    20    18    19    1
    21     6     1    1
    22    18     9    1
    23    10     4    1
    24    16    11    1
    25    19    13    1
    26    20    22    1
    27    20    23    1
@<TRIPOS>MOLECULE
*****
 23 27 0 0 0
SMALL
GASTEIGER

@<TRIPOS>ATOM
      1 C          63.2924   82.8311   13.2092 C.3     1  UNL1        0.0158
      2 C          62.5922   83.0040   11.8940 C.3     1  UNL1        0.0065
      3 C          62.3854   84.3781   11.3292 C.3     1  UNL1        0.0592
      4 C          62.8788   85.5795   12.0797 C.3     1  UNL1        0.2209
      5 C          63.5791   85.4067   13.3948 C.3     1  UNL1        0.0592
      6 C          63.7859   84.0325   13.9596 C.3     1  UNL1        0.0065
      7 O          62.1997   85.9068   10.7829 O.3     1  UNL1       -0.1952
      8 O          62.2160   87.3972   10.6143 O.3     1  UNL1       -0.1952
      9 C          62.9052   87.9910   11.8069 C.3     1  UNL1        0.2205
     10 O          63.3149   86.8676   12.7125 O.3     1  UNL1       -0.3092
     11 C          63.6123   88.4380   13.0520 C.3     1  UNL1        0.0544
     12 C          63.8501   89.8987   13.2962 C.3     1  UNL1        0.0049
     13 C          63.3809   90.9125   12.2952 C.3     1  UNL1        0.0003
     14 C          64.0879   91.3595   13.5402 C.3     1  UNL1        0.0000
     15 C          64.5571   90.3457   14.5412 C.3     1  UNL1        0.0003
     16 C          64.3194   88.8849   14.2972 C.3     1  UNL1        0.0049
     17 C          62.9815   90.1062   11.6657 C.3     1  UNL1        0.0049
     18 C          62.4360   89.0048   10.8059 C.3     1  UNL1        0.0544
     19 C          62.6738   90.4656   11.0501 C.3     1  UNL1        0.0049
     20 N          62.4000   80.7906   14.5470 N.3     1  UNL1       -0.3211
     21 C          63.4992   81.4570   13.7739 C.3     1  UNL1        0.0651
     22 H          62.7108   79.8689   14.8541 H       1  UNL1        0.1189
     23 H          61.5777   80.6912   13.9517 H       1  UNL1        0.1189
@<TRIPOS>BOND
     1    20    21    1
     2     1    21    1
     3     1     2    1
     4     2     3    1
     5     4     3    1
     6     4     5    1
     7     5     6    1
     8     4     7    1
     9     7     8    1
    10     8     9    1
    11     9    10    1
    12     9    11    1
    13    11    12    1
    14    12    13    1
    15    13    14    1
    16    14    15    1
    17    15    16    1
    18    15    17    1
    19    17    18    1
    20    18    19    1
    21     6     1    1
    22    18     9    1
    23    10     4    1
    24    16    11    1
    25    19    13    1
    26    20    22    1
    27    20    23    1
@<TRIPOS>MOLECULE
*****
 23 27 0 0 0
SMALL
GASTEIGER

@<TRIPOS>ATOM
      1 C          62.6836   89.7814   10.9471 C.3     1  UNL1        0.0158
      2 C          63.2890   90.1009   12.2818 C.3     1  UNL1        0.0065
      3 C          63.6305   88.9940   13.2348 C.3     1  UNL1        0.0592
      4 C          63.3667   87.5676   12.8531 C.3     1  UNL1        0.2209
      5 C          62.7612   87.2481   11.5185 C.3     1  UNL1        0.0592
      6 C          62.4197   88.3550   10.5655 C.3     1  UNL1        0.0065
      7 O          63.9735   87.7325   14.2149 O.3     1  UNL1       -0.1952
      8 O          64.1432   86.3683   14.8151 O.3     1  UNL1       -0.1952
      9 C          63.6413   85.3603   13.8242 C.3     1  UNL1        0.2205
     10 O          63.1614   86.1015   12.6116 O.3     1  UNL1       -0.3092
     11 C          63.1064   84.4734   12.7391 C.3     1  UNL1        0.0544
     12 C          63.0877   82.9855   12.9276 C.3     1  UNL1        0.0049
     13 C          63.6038   82.3843   14.2012 C.3     1  UNL1        0.0003
     14 C          63.0690   81.4975   13.1161 C.3     1  UNL1        0.0000
     15 C          62.5528   82.0987   11.8425 C.3     1  UNL1        0.0003
     16 C          62.5715   83.5866   11.6539 C.3     1  UNL1        0.0049
     17 C          63.8378   83.3880   14.5802 C.3     1  UNL1        0.0049
     18 C          64.1574   84.7591   15.0978 C.3     1  UNL1        0.0544
     19 C          64.1387   83.2711   15.2863 C.3     1  UNL1        0.0049
     20 N          63.3355   91.9793    9.7249 N.3     1  UNL1       -0.3211
     21 C          62.3420   90.8882    9.9941 C.3     1  UNL1        0.0651
     22 H          62.9401   92.6421    9.0580 H       1  UNL1        0.1189
     23 H          64.1880   91.5749    9.3375 H       1  UNL1        0.1189
@<TRIPOS>BOND
     1    20    21    1
     2     1    21    1
     3     1     2    1
     4     2     3    1
     5     4     3    1
     6     4     5    1
     7     5     6    1
     8     4     7    1
     9     7     8    1
    10     8     9    1
    11     9    10    1
    12     9    11    1
    13    11    12    1
    14    12    13    1
    15    13    14    1
    16    14    15    1
    17    15    16    1
    18    15    17    1
    19    17    18    1
    20    18    19    1
    21     6     1    1
    22    18     9    1
    23    10     4    1
    24    16    11    1
    25    19    13    1
    26    20    22    1
    27    20    23    1
@<TRIPOS>MOLECULE
*****
 23 27 0 0 0
SMALL
GASTEIGER

@<TRIPOS>ATOM
      1 C          60.1411   88.2208    8.8451 C.3     1  UNL1        0.0158
      2 C          60.1937   87.3133   10.0382 C.3     1  UNL1        0.0065
      3 C          61.1165   87.6263   11.1786 C.3     1  UNL1        0.0592
      4 C          61.9868   88.8468   11.1258 C.3     1  UNL1        0.2209
      5 C          61.9342   89.7544    9.9327 C.3     1  UNL1        0.0592
      6 C          61.0113   89.4414    8.7924 C.3     1  UNL1        0.0065
      7 O          62.1473   88.0368   12.3780 O.3     1  UNL1       -0.1952
      8 O          63.1709   88.7141   13.2403 O.3     1  UNL1       -0.1952
      9 C          63.6430   89.9429   12.5210 C.3     1  UNL1        0.2205
     10 O          62.9111   90.0249   11.2142 O.3     1  UNL1       -0.3092
     11 C          64.0160   91.1321   11.6864 C.3     1  UNL1        0.0544
     12 C          65.0401   92.1076   12.1862 C.3     1  UNL1        0.0049
     13 C          65.6911   91.8938   13.5205 C.3     1  UNL1        0.0003
     14 C          66.0641   93.0830   12.6860 C.3     1  UNL1        0.0000
     15 C          65.4130   93.2968   11.3517 C.3     1  UNL1        0.0003
     16 C          64.3890   92.3214   10.8519 C.3     1  UNL1        0.0049
     17 C          65.1006   90.9788   13.6620 C.3     1  UNL1        0.0049
     18 C          64.2940   89.7290   13.8553 C.3     1  UNL1        0.0544
     19 C          65.3181   90.7045   14.3550 C.3     1  UNL1        0.0049
     20 N          58.3619   86.6771    7.7490 N.3     1  UNL1       -0.3211
     21 C          59.2182   87.9078    7.7048 C.3     1  UNL1        0.0651
     22 H          57.8016   86.6220    6.8985 H       1  UNL1        0.1189
     23 H          57.7451   86.7210    8.5603 H       1  UNL1        0.1189
@<TRIPOS>BOND
     1    20    21    1
     2     1    21    1
     3     1     2    1
     4     2     3    1
     5     4     3    1
     6     4     5    1
     7     5     6    1
     8     4     7    1
     9     7     8    1
    10     8     9    1
    11     9    10    1
    12     9    11    1
    13    11    12    1
    14    12    13    1
    15    13    14    1
    16    14    15    1
    17    15    16    1
    18    15    17    1
    19    17    18    1
    20    18    19    1
    21     6     1    1
    22    18     9    1
    23    10     4    1
    24    16    11    1
    25    19    13    1
    26    20    22    1
    27    20    23    1
@<TRIPOS>MOLECULE
*****
 23 27 0 0 0
SMALL
GASTEIGER

@<TRIPOS>ATOM
      1 C          59.9572   88.2852    8.2026 C.3     1  UNL1        0.0158
      2 C          60.0929   86.8561    8.6374 C.3     1  UNL1        0.0065
      3 C          60.9209   86.5135    9.8404 C.3     1  UNL1        0.0592
      4 C          61.6130   87.6001   10.6086 C.3     1  UNL1        0.2209
      5 C          61.4773   89.0292   10.1739 C.3     1  UNL1        0.0592
      6 C          60.6493   89.3718    8.9709 C.3     1  UNL1        0.0065
      7 O          61.8398   86.2236   11.1600 O.3     1  UNL1       -0.1952
      8 O          62.7265   86.3467   12.3636 O.3     1  UNL1       -0.1952
      9 C          63.0477   87.7992   12.5561 C.3     1  UNL1        0.2205
     10 O          62.3596   88.5738   11.4715 O.3     1  UNL1       -0.3092
     11 C          63.2807   89.2795   12.6219 C.3     1  UNL1        0.0544
     12 C          64.1393   89.8562   13.7082 C.3     1  UNL1        0.0049
     13 C          64.7649   88.9524   14.7289 C.3     1  UNL1        0.0003
     14 C          64.9979   90.4327   14.7946 C.3     1  UNL1        0.0000
     15 C          64.3722   91.3364   13.7740 C.3     1  UNL1        0.0003
     16 C          63.5136   90.7599   12.6876 C.3     1  UNL1        0.0049
     17 C          64.3036   88.0830   14.2420 C.3     1  UNL1        0.0049
     18 C          63.6734   86.8954   13.5768 C.3     1  UNL1        0.0544
     19 C          64.5320   87.4721   14.6632 C.3     1  UNL1        0.0049
     20 N          59.3873   89.9007    6.2493 N.3     1  UNL1       -0.3211
     21 C          59.1292   88.6278    6.9996 C.3     1  UNL1        0.0651
     22 H          58.7374   89.9716    5.4664 H       1  UNL1        0.1189
     23 H          60.3447   89.8998    5.8974 H       1  UNL1        0.1189
@<TRIPOS>BOND
     1    20    21    1
     2     1    21    1
     3     1     2    1
     4     2     3    1
     5     4     3    1
     6     4     5    1
     7     5     6    1
     8     4     7    1
     9     7     8    1
    10     8     9    1
    11     9    10    1
    12     9    11    1
    13    11    12    1
    14    12    13    1
    15    13    14    1
    16    14    15    1
    17    15    16    1
    18    15    17    1
    19    17    18    1
    20    18    19    1
    21     6     1    1
    22    18     9    1
    23    10     4    1
    24    16    11    1
    25    19    13    1
    26    20    22    1
    27    20    23    1
@<TRIPOS>MOLECULE
*****
 23 27 0 0 0
SMALL
GASTEIGER

@<TRIPOS>ATOM
      1 C          60.3763   89.2185   10.4481 C.3     1  UNL1        0.0158
      2 C          60.8873   88.8270    9.0933 C.3     1  UNL1        0.0065
      3 C          61.6525   87.5484    8.9211 C.3     1  UNL1        0.0592
      4 C          61.9065   86.6613   10.1036 C.3     1  UNL1        0.2209
      5 C          61.3955   87.0528   11.4584 C.3     1  UNL1        0.0592
      6 C          60.6304   88.3314   11.6306 C.3     1  UNL1        0.0065
      7 O          62.4763   86.1412    8.8172 O.3     1  UNL1       -0.1952
      8 O          63.1582   84.8367    9.1061 O.3     1  UNL1       -0.1952
      9 C          63.0098   84.5506   10.5711 C.3     1  UNL1        0.2205
     10 O          62.2363   85.6782   11.1875 O.3     1  UNL1       -0.3092
     11 C          62.7823   84.3997   12.0460 C.3     1  UNL1        0.0544
     12 C          63.3141   83.1971   12.7678 C.3     1  UNL1        0.0049
     13 C          64.0734   82.1454   12.0146 C.3     1  UNL1        0.0003
     14 C          63.8459   81.9945   13.4895 C.3     1  UNL1        0.0000
     15 C          63.0866   83.0462   14.2427 C.3     1  UNL1        0.0003
     16 C          62.5548   84.2488   13.5210 C.3     1  UNL1        0.0049
     17 C          63.9448   82.7174   11.0861 C.3     1  UNL1        0.0049
     18 C          63.7691   83.4989    9.8179 C.3     1  UNL1        0.0544
     19 C          64.3009   82.2963   10.5396 C.3     1  UNL1        0.0049
     20 N          58.8775   90.7655   11.9008 N.3     1  UNL1       -0.3211
     21 C          59.6111   90.4972   10.6203 C.3     1  UNL1        0.0651
     22 H          58.4163   91.6736   11.8446 H       1  UNL1        0.1189
     23 H          59.5387   90.7675   12.6775 H       1  UNL1        0.1189
@<TRIPOS>BOND
     1    20    21    1
     2     1    21    1
     3     1     2    1
     4     2     3    1
     5     4     3    1
     6     4     5    1
     7     5     6    1
     8     4     7    1
     9     7     8    1
    10     8     9    1
    11     9    10    1
    12     9    11    1
    13    11    12    1
    14    12    13    1
    15    13    14    1
    16    14    15    1
    17    15    16    1
    18    15    17    1
    19    17    18    1
    20    18    19    1
    21     6     1    1
    22    18     9    1
    23    10     4    1
    24    16    11    1
    25    19    13    1
    26    20    22    1
    27    20    23    1
