@<TRIPOS>MOLECULE
*****
 28 31 0 0 0
SMALL
GASTEIGER

@<TRIPOS>ATOM
      1 C          63.7761   90.4904   13.7413 C.2     1  UNL1        0.2440
      2 O          63.3327   91.4756   12.7008 O.2     1  UNL1       -0.2731
      3 N          63.6571   89.0182   13.4792 N.am    1  UNL1       -0.2747
      4 C          63.0947   88.5314   12.1767 C.3     1  UNL1        0.1149
      5 C          62.9758   87.0592   11.9146 C.3     1  UNL1        0.1121
      6 N          63.4192   86.0740   12.9551 N.pl3   1  UNL1       -0.3071
      7 C          63.9816   86.5608   14.2576 C.3     1  UNL1        0.1121
      8 C          64.1006   88.0330   14.5197 C.3     1  UNL1        0.1149
      9 C          63.3003   84.6018   12.6931 C.2     1  UNL1        0.0295
     10 C          63.8951   84.0109   11.4494 C.2     1  UNL1        0.0120
     11 C          63.7761   82.5387   11.1874 C.2     1  UNL1        0.0216
     12 C          63.0624   81.6575   12.1692 C.2     1  UNL1        0.1008
     13 N          62.7889   80.1827   12.1801 N.2     1  UNL1       -0.1482
     14 N          62.0251   79.8622   13.4306 N.2     1  UNL1       -0.1467
     15 C          61.8264   81.1389   14.1926 C.2     1  UNL1        0.1198
     16 C          62.4675   82.2485   13.4130 C.2     1  UNL1        0.0238
     17 C          62.5865   83.7206   13.6749 C.3     1  UNL1        0.0705
     18 N          63.5316   90.8535   16.3021 N.3     1  UNL1       -0.3116
     19 C          64.3385   90.9772   15.0438 C.3     1  UNL1        0.1514
     20 H          62.6336   90.4192   16.0889 H       1  UNL1        0.1195
     21 H          63.3755   91.7803   16.6984 H       1  UNL1        0.1195
     22 C          65.7080   91.5878   15.0879 C.ar    1  UNL1        0.0006
     23 C          66.6798   91.3309   13.9746 C.ar    1  UNL1       -0.0016
     24 C          68.0492   91.9415   14.0186 C.ar    1  UNL1        0.0111
     25 C          68.4468   92.8089   15.1760 C.ar    1  UNL1        0.0577
     26 CL         69.8162   93.4195   15.2200 Cl      1  UNL1       -0.0822
     27 C          67.4749   93.0658   16.2893 C.ar    1  UNL1        0.0111
     28 C          66.1055   92.4552   16.2452 C.ar    1  UNL1       -0.0016
@<TRIPOS>BOND
     1    18    19    1
     2    19     1    1
     3     1     2    2
     4     1     3   am
     5     3     4    1
     6     4     5    1
     7     5     6    1
     8     6     9    1
     9     9    10    2
    10    10    11    1
    11    11    12    2
    12    12    13    1
    13    13    14    2
    14    14    15    1
    15    15    16    2
    16    16    17    1
    17     6     7    1
    18     7     8    1
    19    19    22    1
    20    22    23   ar
    21    23    24   ar
    22    24    25   ar
    23    25    26    1
    24    25    27   ar
    25    27    28   ar
    26     8     3    1
    27    28    22   ar
    28    17     9    1
    29    16    12    1
    30    18    20    1
    31    18    21    1
@<TRIPOS>MOLECULE
*****
 28 31 0 0 0
SMALL
GASTEIGER

@<TRIPOS>ATOM
      1 C          61.3547   88.9780    9.8316 C.2     1  UNL1        0.2440
      2 O          60.8619   89.5178    8.5217 O.2     1  UNL1       -0.2731
      3 N          62.3710   89.7452   10.6243 N.am    1  UNL1       -0.2747
      4 C          62.8945   91.0523   10.1071 C.3     1  UNL1        0.1149
      5 C          63.9109   91.8196   10.9000 C.3     1  UNL1        0.1121
      6 N          64.4036   91.2797   12.2097 N.pl3   1  UNL1       -0.3071
      7 C          63.8801   89.9727   12.7269 C.3     1  UNL1        0.1121
      8 C          62.8638   89.2054   11.9341 C.3     1  UNL1        0.1149
      9 C          65.4200   92.0470   13.0025 C.2     1  UNL1        0.0295
     10 C          65.6876   93.4880   12.6839 C.2     1  UNL1        0.0120
     11 C          66.7040   94.2553   13.4767 C.2     1  UNL1        0.0216
     12 C          67.4526   93.5813   14.5882 C.2     1  UNL1        0.1008
     13 N          68.5045   94.0779   15.5353 N.2     1  UNL1       -0.1482
     14 N          68.8868   92.9436   16.4393 N.2     1  UNL1       -0.1467
     15 C          68.0713   91.7460   16.0509 C.2     1  UNL1        0.1198
     16 C          67.1849   92.1402   14.9068 C.2     1  UNL1        0.0238
     17 C          66.1686   91.3730   14.1140 C.3     1  UNL1        0.0705
     18 N          59.4544   87.5951   10.9388 N.3     1  UNL1       -0.3116
     19 C          60.8312   87.6709   10.3487 C.3     1  UNL1        0.1514
     20 H          59.0201   88.5176   10.9082 H       1  UNL1        0.1195
     21 H          59.5163   87.2805   11.9071 H       1  UNL1        0.1195
     22 C          61.6848   86.4395   10.2757 C.ar    1  UNL1        0.0006
     23 C          62.3412   86.0577    8.9821 C.ar    1  UNL1       -0.0016
     24 C          63.1947   84.8264    8.9090 C.ar    1  UNL1        0.0111
     25 C          63.3919   83.9769   10.1295 C.ar    1  UNL1        0.0577
     26 CL         64.2454   82.7456   10.0564 Cl      1  UNL1       -0.0822
     27 C          62.7355   84.3587   11.4231 C.ar    1  UNL1        0.0111
     28 C          61.8819   85.5901   11.4961 C.ar    1  UNL1       -0.0016
@<TRIPOS>BOND
     1    18    19    1
     2    19     1    1
     3     1     2    2
     4     1     3   am
     5     3     4    1
     6     4     5    1
     7     5     6    1
     8     6     9    1
     9     9    10    2
    10    10    11    1
    11    11    12    2
    12    12    13    1
    13    13    14    2
    14    14    15    1
    15    15    16    2
    16    16    17    1
    17     6     7    1
    18     7     8    1
    19    19    22    1
    20    22    23   ar
    21    23    24   ar
    22    24    25   ar
    23    25    26    1
    24    25    27   ar
    25    27    28   ar
    26     8     3    1
    27    28    22   ar
    28    17     9    1
    29    16    12    1
    30    18    20    1
    31    18    21    1
@<TRIPOS>MOLECULE
*****
 28 31 0 0 0
SMALL
GASTEIGER

@<TRIPOS>ATOM
      1 C          65.5546   91.6833   13.8613 C.2     1  UNL1        0.2440
      2 O          65.9358   91.0281   15.1557 O.2     1  UNL1       -0.2731
      3 N          64.6150   90.9915   12.9187 N.am    1  UNL1       -0.2747
      4 C          64.0565   89.6446   13.2706 C.3     1  UNL1        0.1149
      5 C          63.1168   88.9528   12.3279 C.3     1  UNL1        0.1121
      6 N          62.7356   89.6080   11.0336 N.pl3   1  UNL1       -0.3071
      7 C          63.2941   90.9549   10.6818 C.3     1  UNL1        0.1121
      8 C          64.2338   91.6467   11.6243 C.3     1  UNL1        0.1149
      9 C          61.7959   88.9162   10.0909 C.2     1  UNL1        0.0295
     10 C          60.5226   89.5896    9.6726 C.2     1  UNL1        0.0120
     11 C          59.5829   88.8978    8.7299 C.2     1  UNL1        0.0216
     12 C          59.9167   87.5326    8.2057 C.2     1  UNL1        0.1008
     13 N          59.1905   86.6113    7.2710 N.2     1  UNL1       -0.1482
     14 N          60.0151   85.3684    7.1117 N.2     1  UNL1       -0.1467
     15 C          61.2509   85.5216    7.9479 C.2     1  UNL1        0.1198
     16 C          61.1901   86.8592    8.6241 C.2     1  UNL1        0.0238
     17 C          62.1297   87.5510    9.5667 C.3     1  UNL1        0.0705
     18 N          66.2101   94.0990   14.5574 N.3     1  UNL1       -0.3116
     19 C          66.1131   93.0303   13.5095 C.3     1  UNL1        0.1514
     20 H          65.8546   93.7397   15.4434 H       1  UNL1        0.1195
     21 H          65.6568   94.9067   14.2716 H       1  UNL1        0.1195
     22 C          66.5745   93.3084   12.1095 C.ar    1  UNL1        0.0006
     23 C          66.1936   94.5933   11.4357 C.ar    1  UNL1       -0.0016
     24 C          66.6549   94.8715   10.0358 C.ar    1  UNL1        0.0111
     25 C          67.4973   93.8649    9.3097 C.ar    1  UNL1        0.0577
     26 CL         67.9587   94.1431    7.9099 Cl      1  UNL1       -0.0822
     27 C          67.8782   92.5800    9.9835 C.ar    1  UNL1        0.0111
     28 C          67.4168   92.3019   11.3835 C.ar    1  UNL1       -0.0016
@<TRIPOS>BOND
     1    18    19    1
     2    19     1    1
     3     1     2    2
     4     1     3   am
     5     3     4    1
     6     4     5    1
     7     5     6    1
     8     6     9    1
     9     9    10    2
    10    10    11    1
    11    11    12    2
    12    12    13    1
    13    13    14    2
    14    14    15    1
    15    15    16    2
    16    16    17    1
    17     6     7    1
    18     7     8    1
    19    19    22    1
    20    22    23   ar
    21    23    24   ar
    22    24    25   ar
    23    25    26    1
    24    25    27   ar
    25    27    28   ar
    26     8     3    1
    27    28    22   ar
    28    17     9    1
    29    16    12    1
    30    18    20    1
    31    18    21    1
@<TRIPOS>MOLECULE
*****
 28 31 0 0 0
SMALL
GASTEIGER

@<TRIPOS>ATOM
      1 C          60.6746   88.5623    8.9411 C.2     1  UNL1        0.2440
      2 O          60.1553   89.4400    7.8410 O.2     1  UNL1       -0.2731
      3 N          61.5121   89.1505   10.0377 N.am    1  UNL1       -0.2747
      4 C          61.8303   90.6164   10.0343 C.3     1  UNL1        0.1149
      5 C          62.6678   91.2045   11.1310 C.3     1  UNL1        0.1121
      6 N          63.1870   90.3269   12.2310 N.pl3   1  UNL1       -0.3071
      7 C          62.8688   88.8611   12.2344 C.3     1  UNL1        0.1121
      8 C          62.0313   88.2729   11.1378 C.3     1  UNL1        0.1149
      9 C          64.0246   90.9151   13.3277 C.2     1  UNL1        0.0295
     10 C          63.6725   90.6544   14.7622 C.2     1  UNL1        0.0120
     11 C          64.5100   91.2426   15.8590 C.2     1  UNL1        0.0216
     12 C          65.6996   92.0914   15.5210 C.2     1  UNL1        0.1008
     13 N          66.7039   92.7999   16.3809 N.2     1  UNL1       -0.1482
     14 N          67.6767   93.4984   15.4778 N.2     1  UNL1       -0.1467
     15 C          67.2736   93.2217   14.0597 C.2     1  UNL1        0.1198
     16 C          66.0517   92.3521   14.0864 C.2     1  UNL1        0.0238
     17 C          65.2142   91.7639   12.9897 C.3     1  UNL1        0.0705
     18 N          58.9856   86.6257    8.5584 N.3     1  UNL1       -0.3116
     19 C          60.3564   87.0965    8.9445 C.3     1  UNL1        0.1514
     20 H          58.4030   87.4299    8.3254 H       1  UNL1        0.1195
     21 H          58.5682   86.1181    9.3384 H       1  UNL1        0.1195
     22 C          61.4091   86.1015    9.3340 C.ar    1  UNL1        0.0006
     23 C          61.4563   85.5697   10.7358 C.ar    1  UNL1       -0.0016
     24 C          62.5090   84.5747   11.1254 C.ar    1  UNL1        0.0111
     25 C          63.5145   84.1114   10.1133 C.ar    1  UNL1        0.0577
     26 CL         64.5672   83.1164   10.5029 Cl      1  UNL1       -0.0822
     27 C          63.4673   84.6432    8.7115 C.ar    1  UNL1        0.0111
     28 C          62.4146   85.6383    8.3219 C.ar    1  UNL1       -0.0016
@<TRIPOS>BOND
     1    18    19    1
     2    19     1    1
     3     1     2    2
     4     1     3   am
     5     3     4    1
     6     4     5    1
     7     5     6    1
     8     6     9    1
     9     9    10    2
    10    10    11    1
    11    11    12    2
    12    12    13    1
    13    13    14    2
    14    14    15    1
    15    15    16    2
    16    16    17    1
    17     6     7    1
    18     7     8    1
    19    19    22    1
    20    22    23   ar
    21    23    24   ar
    22    24    25   ar
    23    25    26    1
    24    25    27   ar
    25    27    28   ar
    26     8     3    1
    27    28    22   ar
    28    17     9    1
    29    16    12    1
    30    18    20    1
    31    18    21    1
@<TRIPOS>MOLECULE
*****
 28 31 0 0 0
SMALL
GASTEIGER

@<TRIPOS>ATOM
      1 C          62.0479   86.7693   11.7859 C.2     1  UNL1        0.2440
      2 O          62.0309   85.3585   12.2951 O.2     1  UNL1       -0.2731
      3 N          62.8898   87.8041   12.4717 N.am    1  UNL1       -0.2747
      4 C          63.7147   87.4281   13.6667 C.3     1  UNL1        0.1149
      5 C          64.5566   88.4629   14.3526 C.3     1  UNL1        0.1121
      6 N          64.5736   89.8737   13.8434 N.pl3   1  UNL1       -0.3071
      7 C          63.7487   90.2497   12.6484 C.3     1  UNL1        0.1121
      8 C          62.9067   89.2150   11.9626 C.3     1  UNL1        0.1149
      9 C          65.4155   90.9086   14.5292 C.2     1  UNL1        0.0295
     10 C          64.8487   91.7011   15.6696 C.2     1  UNL1        0.0120
     11 C          65.6907   92.7359   16.3555 C.2     1  UNL1        0.0216
     12 C          67.0994   92.9782   15.9007 C.2     1  UNL1        0.1008
     13 N          68.1600   93.9244   16.3801 N.2     1  UNL1       -0.1482
     14 N          69.3824   93.7166   15.5358 N.2     1  UNL1       -0.1467
     15 C          69.0772   92.6420   14.5347 C.2     1  UNL1        0.1198
     16 C          67.6662   92.1857   14.7603 C.2     1  UNL1        0.0238
     17 C          66.8242   91.1509   14.0745 C.3     1  UNL1        0.0705
     18 N          60.2338   88.2690   10.6859 N.3     1  UNL1       -0.3116
     19 C          61.2229   87.1454   10.5909 C.3     1  UNL1        0.1514
     20 H          60.2542   88.6612   11.6272 H       1  UNL1        0.1195
     21 H          59.2982   87.9162   10.4847 H       1  UNL1        0.1195
     22 C          61.3872   86.3977    9.3009 C.ar    1  UNL1        0.0006
     23 C          62.7087   85.7771    8.9568 C.ar    1  UNL1       -0.0016
     24 C          62.8730   85.0295    7.6669 C.ar    1  UNL1        0.0111
     25 C          61.7158   84.9024    6.7209 C.ar    1  UNL1        0.0577
     26 CL         61.8802   84.1548    5.4310 Cl      1  UNL1       -0.0822
     27 C          60.3943   85.5230    7.0650 C.ar    1  UNL1        0.0111
     28 C          60.2300   86.2707    8.3550 C.ar    1  UNL1       -0.0016
@<TRIPOS>BOND
     1    18    19    1
     2    19     1    1
     3     1     2    2
     4     1     3   am
     5     3     4    1
     6     4     5    1
     7     5     6    1
     8     6     9    1
     9     9    10    2
    10    10    11    1
    11    11    12    2
    12    12    13    1
    13    13    14    2
    14    14    15    1
    15    15    16    2
    16    16    17    1
    17     6     7    1
    18     7     8    1
    19    19    22    1
    20    22    23   ar
    21    23    24   ar
    22    24    25   ar
    23    25    26    1
    24    25    27   ar
    25    27    28   ar
    26     8     3    1
    27    28    22   ar
    28    17     9    1
    29    16    12    1
    30    18    20    1
    31    18    21    1
@<TRIPOS>MOLECULE
*****
 28 31 0 0 0
SMALL
GASTEIGER

@<TRIPOS>ATOM
      1 C          63.8033   89.9451   15.8410 C.2     1  UNL1        0.2440
      2 O          63.4585   90.3095   17.2546 O.2     1  UNL1       -0.2731
      3 N          63.7139   88.5168   15.3916 N.am    1  UNL1       -0.2747
      4 C          63.2797   87.4529   16.3558 C.3     1  UNL1        0.1149
      5 C          63.1903   86.0246   15.9063 C.3     1  UNL1        0.1121
      6 N          63.5351   85.6602   14.4927 N.pl3   1  UNL1       -0.3071
      7 C          63.9693   86.7240   13.5286 C.3     1  UNL1        0.1121
      8 C          64.0587   88.1523   13.9780 C.3     1  UNL1        0.1149
      9 C          63.4457   84.2319   14.0432 C.2     1  UNL1        0.0295
     10 C          64.5369   83.6411   13.2005 C.2     1  UNL1        0.0120
     11 C          64.4475   82.2128   12.7510 C.2     1  UNL1        0.0216
     12 C          63.2669   81.3753   13.1443 C.2     1  UNL1        0.1008
     13 N          62.9067   79.9486   12.8530 N.2     1  UNL1       -0.1482
     14 N          61.5929   79.6577   13.5158 N.2     1  UNL1       -0.1467
     15 C          61.1411   80.9045   14.2167 C.2     1  UNL1        0.1198
     16 C          62.1757   81.9661   13.9871 C.2     1  UNL1        0.0238
     17 C          62.2651   83.3944   14.4366 C.3     1  UNL1        0.0705
     18 N          63.3062   91.4640   13.7928 N.3     1  UNL1       -0.3116
     19 C          64.2375   91.0089   14.8769 C.3     1  UNL1        0.1514
     20 H          62.4288   90.9480   13.8595 H       1  UNL1        0.1195
     21 H          63.7336   91.2916   12.8828 H       1  UNL1        0.1195
     22 C          65.6033   91.6176   14.9969 C.ar    1  UNL1        0.0006
     23 C          65.9645   92.4150   16.2149 C.ar    1  UNL1       -0.0016
     24 C          67.3302   93.0237   16.3350 C.ar    1  UNL1        0.0111
     25 C          68.3346   92.8351   15.2370 C.ar    1  UNL1        0.0577
     26 CL         69.7002   93.4438   15.3570 Cl      1  UNL1       -0.0822
     27 C          67.9733   92.0378   14.0189 C.ar    1  UNL1        0.0111
     28 C          66.6076   91.4290   13.8989 C.ar    1  UNL1       -0.0016
@<TRIPOS>BOND
     1    18    19    1
     2    19     1    1
     3     1     2    2
     4     1     3   am
     5     3     4    1
     6     4     5    1
     7     5     6    1
     8     6     9    1
     9     9    10    2
    10    10    11    1
    11    11    12    2
    12    12    13    1
    13    13    14    2
    14    14    15    1
    15    15    16    2
    16    16    17    1
    17     6     7    1
    18     7     8    1
    19    19    22    1
    20    22    23   ar
    21    23    24   ar
    22    24    25   ar
    23    25    26    1
    24    25    27   ar
    25    27    28   ar
    26     8     3    1
    27    28    22   ar
    28    17     9    1
    29    16    12    1
    30    18    20    1
    31    18    21    1
@<TRIPOS>MOLECULE
*****
 28 31 0 0 0
SMALL
GASTEIGER

@<TRIPOS>ATOM
      1 C          64.1360   89.6821   13.7733 C.2     1  UNL1        0.2440
      2 O          64.9149   90.1773   14.9557 O.2     1  UNL1       -0.2731
      3 N          63.8958   88.2122   13.5956 N.am    1  UNL1       -0.2747
      4 C          64.4346   87.2374   14.6003 C.3     1  UNL1        0.1149
      5 C          64.1943   85.7674   14.4225 C.3     1  UNL1        0.1121
      6 N          63.4154   85.2723   13.2402 N.pl3   1  UNL1       -0.3071
      7 C          62.8767   86.2471   12.2354 C.3     1  UNL1        0.1121
      8 C          63.1169   87.7171   12.4131 C.3     1  UNL1        0.1149
      9 C          63.1752   83.8023   13.0624 C.2     1  UNL1        0.0295
     10 C          62.7576   82.9636   14.2337 C.2     1  UNL1        0.0120
     11 C          62.5174   81.4936   14.0559 C.2     1  UNL1        0.0216
     12 C          62.6948   80.8625   12.7068 C.2     1  UNL1        0.1008
     13 N          62.5313   79.4496   12.2303 N.2     1  UNL1       -0.1482
     14 N          62.8479   79.4152   10.7645 N.2     1  UNL1       -0.1467
     15 C          63.2070   80.8068   10.3351 C.2     1  UNL1        0.1198
     16 C          63.1125   81.7013   11.5354 C.2     1  UNL1        0.0238
     17 C          63.3527   83.1712   11.7133 C.3     1  UNL1        0.0705
     18 N          62.1707   90.5564   12.3163 N.3     1  UNL1       -0.3116
     19 C          63.5972   90.6569   12.7685 C.3     1  UNL1        0.1514
     20 H          61.7180   89.7747   12.7901 H       1  UNL1        0.1195
     21 H          62.1435   90.4045   11.3080 H       1  UNL1        0.1195
     22 C          64.4852   91.7323   12.2161 C.ar    1  UNL1        0.0006
     23 C          65.4416   92.4528   13.1196 C.ar    1  UNL1       -0.0016
     24 C          66.3296   93.5281   12.5672 C.ar    1  UNL1        0.0111
     25 C          66.2612   93.8830   11.1114 C.ar    1  UNL1        0.0577
     26 CL         67.1491   94.9584   10.5590 Cl      1  UNL1       -0.0822
     27 C          65.3048   93.1626   10.2079 C.ar    1  UNL1        0.0111
     28 C          64.4168   92.0872   10.7604 C.ar    1  UNL1       -0.0016
@<TRIPOS>BOND
     1    18    19    1
     2    19     1    1
     3     1     2    2
     4     1     3   am
     5     3     4    1
     6     4     5    1
     7     5     6    1
     8     6     9    1
     9     9    10    2
    10    10    11    1
    11    11    12    2
    12    12    13    1
    13    13    14    2
    14    14    15    1
    15    15    16    2
    16    16    17    1
    17     6     7    1
    18     7     8    1
    19    19    22    1
    20    22    23   ar
    21    23    24   ar
    22    24    25   ar
    23    25    26    1
    24    25    27   ar
    25    27    28   ar
    26     8     3    1
    27    28    22   ar
    28    17     9    1
    29    16    12    1
    30    18    20    1
    31    18    21    1
@<TRIPOS>MOLECULE
*****
 28 31 0 0 0
SMALL
GASTEIGER

@<TRIPOS>ATOM
      1 C          62.9216   85.6649   16.2770 C.2     1  UNL1        0.2440
      2 O          61.9551   85.6113   17.4229 O.2     1  UNL1       -0.2731
      3 N          63.4591   86.9853   15.8103 N.am    1  UNL1       -0.2747
      4 C          63.0301   88.2520   16.4896 C.3     1  UNL1        0.1149
      5 C          63.5677   89.5724   16.0228 C.3     1  UNL1        0.1121
      6 N          64.5341   89.6259   14.8769 N.pl3   1  UNL1       -0.3071
      7 C          64.9630   88.3592   14.1977 C.3     1  UNL1        0.1121
      8 C          64.4255   87.0389   14.6644 C.3     1  UNL1        0.1149
      9 C          65.0716   90.9463   14.4102 C.2     1  UNL1        0.0295
     10 C          65.7746   91.8536   15.3759 C.2     1  UNL1        0.0120
     11 C          66.3121   93.1739   14.9091 C.2     1  UNL1        0.0216
     12 C          66.1467   93.5869   13.4766 C.2     1  UNL1        0.1008
     13 N          66.5682   94.8190   12.7322 N.2     1  UNL1       -0.1482
     14 N          66.1257   94.6731   11.3064 N.2     1  UNL1       -0.1467
     15 C          65.4308   93.3509   11.1696 C.2     1  UNL1        0.1198
     16 C          65.4437   92.6795   12.5109 C.2     1  UNL1        0.0238
     17 C          64.9062   91.3592   12.9777 C.3     1  UNL1        0.0705
     18 N          63.7638   83.2112   16.4162 N.3     1  UNL1       -0.3116
     19 C          63.3505   84.3982   15.5978 C.3     1  UNL1        0.1514
     20 H          63.6929   83.4405   17.4076 H       1  UNL1        0.1195
     21 H          64.7275   82.9630   16.1927 H       1  UNL1        0.1195
     22 C          63.3661   84.3186   14.0999 C.ar    1  UNL1        0.0006
     23 C          64.4442   83.5442   13.4013 C.ar    1  UNL1       -0.0016
     24 C          64.4599   83.4646   11.9035 C.ar    1  UNL1        0.0111
     25 C          63.3975   84.1594   11.1043 C.ar    1  UNL1        0.0577
     26 CL         63.4132   84.0798    9.6065 Cl      1  UNL1       -0.0822
     27 C          62.3195   84.9338   11.8029 C.ar    1  UNL1        0.0111
     28 C          62.3038   85.0134   13.3008 C.ar    1  UNL1       -0.0016
@<TRIPOS>BOND
     1    18    19    1
     2    19     1    1
     3     1     2    2
     4     1     3   am
     5     3     4    1
     6     4     5    1
     7     5     6    1
     8     6     9    1
     9     9    10    2
    10    10    11    1
    11    11    12    2
    12    12    13    1
    13    13    14    2
    14    14    15    1
    15    15    16    2
    16    16    17    1
    17     6     7    1
    18     7     8    1
    19    19    22    1
    20    22    23   ar
    21    23    24   ar
    22    24    25   ar
    23    25    26    1
    24    25    27   ar
    25    27    28   ar
    26     8     3    1
    27    28    22   ar
    28    17     9    1
    29    16    12    1
    30    18    20    1
    31    18    21    1
@<TRIPOS>MOLECULE
*****
 28 31 0 0 0
SMALL
GASTEIGER

@<TRIPOS>ATOM
      1 C          60.0620   95.7485    0.2798 C.2     1  UNL1        0.2440
      2 O          59.3871   96.7792    1.1354 O.2     1  UNL1       -0.2731
      3 N          59.2572   94.9355   -0.6905 N.am    1  UNL1       -0.2747
      4 C          57.7776   95.1533   -0.8051 C.3     1  UNL1        0.1149
      5 C          56.9729   94.3403   -1.7755 C.3     1  UNL1        0.1121
      6 N          57.6478   93.3096   -2.6310 N.pl3   1  UNL1       -0.3071
      7 C          59.1274   93.0918   -2.5164 C.3     1  UNL1        0.1121
      8 C          59.9322   93.9048   -1.5461 C.3     1  UNL1        0.1149
      9 C          56.8430   92.4965   -3.6014 C.2     1  UNL1        0.0295
     10 C          56.7659   92.9081   -5.0417 C.2     1  UNL1        0.0120
     11 C          55.9612   92.0951   -6.0120 C.2     1  UNL1        0.0216
     12 C          55.2336   90.8705   -5.5419 C.2     1  UNL1        0.1008
     13 N          54.3684   89.8788   -6.2616 N.2     1  UNL1       -0.1482
     14 N          53.9108   88.8544   -5.2661 N.2     1  UNL1       -0.1467
     15 C          54.4932   89.2129   -3.9310 C.2     1  UNL1        0.1198
     16 C          55.3108   90.4589   -4.1015 C.2     1  UNL1        0.0238
     17 C          56.1155   91.2720   -3.1312 C.3     1  UNL1        0.0705
     18 N          62.4941   96.5108   -0.2235 N.3     1  UNL1       -0.3116
     19 C          61.5416   95.5307    0.3945 C.3     1  UNL1        0.1514
     20 H          61.9672   97.2571   -0.6772 H       1  UNL1        0.1195
     21 H          63.0719   96.0334   -0.9153 H       1  UNL1        0.1195
     22 C          62.0688   94.3326    1.1272 C.ar    1  UNL1        0.0006
     23 C          63.5045   93.9283    0.9685 C.ar    1  UNL1       -0.0016
     24 C          64.0317   92.7303    1.7012 C.ar    1  UNL1        0.0111
     25 C          63.1231   91.9366    2.5926 C.ar    1  UNL1        0.0577
     26 CL         63.6503   90.7386    3.3253 Cl      1  UNL1       -0.0822
     27 C          61.6874   92.3409    2.7513 C.ar    1  UNL1        0.0111
     28 C          61.1603   93.5390    2.0186 C.ar    1  UNL1       -0.0016
@<TRIPOS>BOND
     1    18    19    1
     2    19     1    1
     3     1     2    2
     4     1     3   am
     5     3     4    1
     6     4     5    1
     7     5     6    1
     8     6     9    1
     9     9    10    2
    10    10    11    1
    11    11    12    2
    12    12    13    1
    13    13    14    2
    14    14    15    1
    15    15    16    2
    16    16    17    1
    17     6     7    1
    18     7     8    1
    19    19    22    1
    20    22    23   ar
    21    23    24   ar
    22    24    25   ar
    23    25    26    1
    24    25    27   ar
    25    27    28   ar
    26     8     3    1
    27    28    22   ar
    28    17     9    1
    29    16    12    1
    30    18    20    1
    31    18    21    1
