@<TRIPOS>MOLECULE
*****
 31 35 0 0 0
SMALL
GASTEIGER

@<TRIPOS>ATOM
      1 C          66.1205   93.1676   13.3071 C.ar    1  UNL1        0.0845
      2 C          66.6565   93.4934   14.6697 C.ar    1  UNL1        0.1180
      3 N          66.0873   92.5021   15.6409 N.ar    1  UNL1       -0.2249
      4 C          65.1995   91.5636   14.8786 C.ar    1  UNL1        0.1478
      5 C          64.3750   90.3877   15.3115 C.ar    1  UNL1        0.0374
      6 C          63.5712   89.6231   14.3020 C.ar    1  UNL1        0.0046
      7 C          63.5917   90.0344   12.8596 C.ar    1  UNL1        0.0177
      8 C          64.4162   91.2103   12.4267 C.ar    1  UNL1        0.0814
      9 N          65.2200   91.9749   13.4362 N.ar    1  UNL1       -0.2888
     10 C          67.0507   95.3797    9.5003 C.ar    1  UNL1        0.0684
     11 C          66.4884   96.1181   10.6786 C.ar    1  UNL1        0.0103
     12 C          66.1783   95.3808   11.9475 C.ar    1  UNL1        0.0022
     13 C          66.4306   93.9050   12.0382 C.ar    1  UNL1        0.0177
     14 C          66.9930   93.1665   10.8598 C.ar    1  UNL1        0.0022
     15 C          67.3031   93.9039    9.5909 C.ar    1  UNL1        0.0103
     16 N          67.6710   96.8544    6.9625 N.1     1  UNL1       -0.1908
     17 C          67.3608   96.1171    8.2314 C.1     1  UNL1        0.1004
     18 C          62.7878   89.2697   11.8501 C.ar    1  UNL1        0.0015
     19 C          62.0836   89.9986   10.7444 C.ar    1  UNL1        0.0002
     20 C          61.2796   89.2339    9.7349 C.ar    1  UNL1        0.0045
     21 C          61.1799   87.7403    9.8313 C.ar    1  UNL1        0.0536
     22 C          61.8842   87.0114   10.9371 C.ar    1  UNL1        0.0045
     23 C          62.6881   87.7761   11.9465 C.ar    1  UNL1        0.0002
     24 C          60.3760   86.9756    8.8218 C.2     1  UNL1        0.2492
     25 O          58.9005   87.2163    8.7001 O.2     1  UNL1       -0.2699
     26 N          61.0477   85.9702    7.9342 N.am    1  UNL1       -0.2709
     27 C          62.5232   85.7295    8.0559 C.3     1  UNL1        0.1258
     28 C          63.1949   84.7240    7.1682 C.3     1  UNL1        0.1637
     29 O          62.3910   83.9594    6.1588 O.3     1  UNL1       -0.3501
     30 C          60.9154   84.2001    6.0370 C.3     1  UNL1        0.1637
     31 C          60.2438   85.2055    6.9247 C.3     1  UNL1        0.1258
@<TRIPOS>BOND
     1    16    17    3
     2    17    10    1
     3    10    11   ar
     4    11    12   ar
     5    12    13   ar
     6    13     1    1
     7     1     2   ar
     8     2     3   ar
     9     3     4   ar
    10     4     5   ar
    11     5     6   ar
    12     6     7   ar
    13     7    18    1
    14    18    19   ar
    15    19    20   ar
    16    20    21   ar
    17    21    24    1
    18    24    25    2
    19    24    26   am
    20    26    27    1
    21    27    28    1
    22    28    29    1
    23    29    30    1
    24    30    31    1
    25    21    22   ar
    26    22    23   ar
    27     7     8   ar
    28     8     9   ar
    29    13    14   ar
    30    14    15   ar
    31    15    10   ar
    32     9     1   ar
    33     9     4   ar
    34    23    18   ar
    35    31    26    1
@<TRIPOS>MOLECULE
*****
 31 35 0 0 0
SMALL
GASTEIGER

@<TRIPOS>ATOM
      1 C          62.9259   85.2576   12.9275 C.ar    1  UNL1        0.0845
      2 C          62.5604   84.2048   13.9314 C.ar    1  UNL1        0.1180
      3 N          62.7890   84.7715   15.3013 N.ar    1  UNL1       -0.2249
      4 C          63.2957   86.1745   15.1440 C.ar    1  UNL1        0.1478
      5 C          63.6909   87.2173   16.1472 C.ar    1  UNL1        0.0374
      6 C          64.1708   88.5605   15.6831 C.ar    1  UNL1        0.0046
      7 C          64.2555   88.8610   14.2160 C.ar    1  UNL1        0.0177
      8 C          63.8603   87.8182   13.2128 C.ar    1  UNL1        0.0814
      9 N          63.3803   86.4749   13.6769 N.ar    1  UNL1       -0.2888
     10 C          62.6991   84.8377    8.4528 C.ar    1  UNL1        0.0684
     11 C          61.9600   85.9471    9.1404 C.ar    1  UNL1        0.0103
     12 C          62.0356   86.0870   10.6320 C.ar    1  UNL1        0.0022
     13 C          62.8503   85.1177   11.4359 C.ar    1  UNL1        0.0177
     14 C          63.5896   84.0082   10.7483 C.ar    1  UNL1        0.0022
     15 C          63.5139   83.8683    9.2567 C.ar    1  UNL1        0.0103
     16 N          62.5480   84.5577    5.4698 N.1     1  UNL1       -0.1908
     17 C          62.6235   84.6978    6.9612 C.1     1  UNL1        0.1004
     18 C          64.7355   90.2043   13.7520 C.ar    1  UNL1        0.0015
     19 C          64.1014   90.8563   12.5592 C.ar    1  UNL1        0.0002
     20 C          64.5813   92.1997   12.0952 C.ar    1  UNL1        0.0045
     21 C          65.6954   92.8908   12.8240 C.ar    1  UNL1        0.0536
     22 C          66.3295   92.2387   14.0168 C.ar    1  UNL1        0.0045
     23 C          65.8495   90.8955   14.4808 C.ar    1  UNL1        0.0002
     24 C          66.1753   94.2341   12.3601 C.2     1  UNL1        0.2492
     25 O          66.1575   95.4027   13.3003 O.2     1  UNL1       -0.2699
     26 N          66.6731   94.4087   10.9559 N.am    1  UNL1       -0.2709
     27 C          66.6909   93.2401   10.0157 C.3     1  UNL1        0.1258
     28 C          67.1887   93.4147    8.6115 C.3     1  UNL1        0.1637
     29 O          67.6687   94.7580    8.1476 O.3     1  UNL1       -0.3501
     30 C          67.6508   95.9266    9.0878 C.3     1  UNL1        0.1637
     31 C          67.1531   95.7520   10.4919 C.3     1  UNL1        0.1258
@<TRIPOS>BOND
     1    16    17    3
     2    17    10    1
     3    10    11   ar
     4    11    12   ar
     5    12    13   ar
     6    13     1    1
     7     1     2   ar
     8     2     3   ar
     9     3     4   ar
    10     4     5   ar
    11     5     6   ar
    12     6     7   ar
    13     7    18    1
    14    18    19   ar
    15    19    20   ar
    16    20    21   ar
    17    21    24    1
    18    24    25    2
    19    24    26   am
    20    26    27    1
    21    27    28    1
    22    28    29    1
    23    29    30    1
    24    30    31    1
    25    21    22   ar
    26    22    23   ar
    27     7     8   ar
    28     8     9   ar
    29    13    14   ar
    30    14    15   ar
    31    15    10   ar
    32     9     1   ar
    33     9     4   ar
    34    23    18   ar
    35    31    26    1
@<TRIPOS>MOLECULE
*****
 31 35 0 0 0
SMALL
GASTEIGER

@<TRIPOS>ATOM
      1 C          63.1483   85.7414   15.6151 C.ar    1  UNL1        0.0845
      2 C          62.5817   85.1942   16.8916 C.ar    1  UNL1        0.1180
      3 N          62.4471   86.3292   17.8630 N.ar    1  UNL1       -0.2249
      4 C          62.9306   87.5779   17.1870 C.ar    1  UNL1        0.1478
      5 C          63.0323   88.9987   17.6569 C.ar    1  UNL1        0.0374
      6 C          63.5673   90.0562   16.7375 C.ar    1  UNL1        0.0046
      7 C          64.0007   89.6930   15.3482 C.ar    1  UNL1        0.0177
      8 C          63.8990   88.2721   14.8783 C.ar    1  UNL1        0.0814
      9 N          63.3640   87.2146   15.7976 N.ar    1  UNL1       -0.2888
     10 C          64.0440   83.3785   11.8916 C.ar    1  UNL1        0.0684
     11 C          64.6472   82.9695   13.2026 C.ar    1  UNL1        0.0103
     12 C          64.3486   83.7572   14.4438 C.ar    1  UNL1        0.0022
     13 C          63.4469   84.9538   14.3740 C.ar    1  UNL1        0.0177
     14 C          62.8437   85.3629   13.0628 C.ar    1  UNL1        0.0022
     15 C          63.1423   84.5752   11.8217 C.ar    1  UNL1        0.0103
     16 N          64.6413   81.8033    9.4093 N.1     1  UNL1       -0.1908
     17 C          64.3426   82.5909   10.6504 C.1     1  UNL1        0.1004
     18 C          64.5357   90.7506   14.4288 C.ar    1  UNL1        0.0015
     19 C          65.6899   91.6058   14.8606 C.ar    1  UNL1        0.0002
     20 C          66.2249   92.6635   13.9412 C.ar    1  UNL1        0.0045
     21 C          65.6058   92.8658   12.5901 C.ar    1  UNL1        0.0536
     22 C          64.4516   92.0105   12.1583 C.ar    1  UNL1        0.0045
     23 C          63.9166   90.9529   13.0776 C.ar    1  UNL1        0.0002
     24 C          66.1408   93.9234   11.6707 C.2     1  UNL1        0.2492
     25 O          65.8274   95.3678   11.9262 O.2     1  UNL1       -0.2699
     26 N          66.9891   93.5365   10.4958 N.am    1  UNL1       -0.2709
     27 C          67.3025   92.0920   10.2402 C.3     1  UNL1        0.1258
     28 C          68.1510   91.7051    9.0652 C.3     1  UNL1        0.1637
     29 O          68.6860   92.7627    8.1458 O.3     1  UNL1       -0.3501
     30 C          68.3726   94.2072    8.4014 C.3     1  UNL1        0.1637
     31 C          67.5242   94.5941    9.5763 C.3     1  UNL1        0.1258
@<TRIPOS>BOND
     1    16    17    3
     2    17    10    1
     3    10    11   ar
     4    11    12   ar
     5    12    13   ar
     6    13     1    1
     7     1     2   ar
     8     2     3   ar
     9     3     4   ar
    10     4     5   ar
    11     5     6   ar
    12     6     7   ar
    13     7    18    1
    14    18    19   ar
    15    19    20   ar
    16    20    21   ar
    17    21    24    1
    18    24    25    2
    19    24    26   am
    20    26    27    1
    21    27    28    1
    22    28    29    1
    23    29    30    1
    24    30    31    1
    25    21    22   ar
    26    22    23   ar
    27     7     8   ar
    28     8     9   ar
    29    13    14   ar
    30    14    15   ar
    31    15    10   ar
    32     9     1   ar
    33     9     4   ar
    34    23    18   ar
    35    31    26    1
@<TRIPOS>MOLECULE
*****
 31 35 0 0 0
SMALL
GASTEIGER

@<TRIPOS>ATOM
      1 C          63.1597   86.4310   15.6715 C.ar    1  UNL1        0.0845
      2 C          62.4869   86.2054   16.9930 C.ar    1  UNL1        0.1180
      3 N          62.5003   87.5018   17.7473 N.ar    1  UNL1       -0.2249
      4 C          63.1814   88.5288   16.8920 C.ar    1  UNL1        0.1478
      5 C          63.4832   89.9809   17.1156 C.ar    1  UNL1        0.0374
      6 C          64.1925   90.7713   16.0563 C.ar    1  UNL1        0.0046
      7 C          64.6000   90.1095   14.7734 C.ar    1  UNL1        0.0177
      8 C          64.2983   88.6573   14.5497 C.ar    1  UNL1        0.0814
      9 N          63.5890   87.8669   15.6090 N.ar    1  UNL1       -0.2888
     10 C          63.7814   83.3424   12.4583 C.ar    1  UNL1        0.0684
     11 C          63.2247   84.6899   12.1058 C.ar    1  UNL1        0.0103
     12 C          63.0174   85.7194   13.1768 C.ar    1  UNL1        0.0022
     13 C          63.3669   85.4015   14.6004 C.ar    1  UNL1        0.0177
     14 C          63.9237   84.0539   14.9530 C.ar    1  UNL1        0.0022
     15 C          64.1309   83.0244   13.8820 C.ar    1  UNL1        0.0103
     16 N          64.1959   81.2835   10.3162 N.1     1  UNL1       -0.1908
     17 C          63.9886   82.3129   11.3873 C.1     1  UNL1        0.1004
     18 C          65.3093   90.9000   13.7140 C.ar    1  UNL1        0.0015
     19 C          64.6067   91.2357   12.4321 C.ar    1  UNL1        0.0002
     20 C          65.3160   92.0262   11.3727 C.ar    1  UNL1        0.0045
     21 C          66.7280   92.4808   11.5955 C.ar    1  UNL1        0.0536
     22 C          67.4307   92.1450   12.8775 C.ar    1  UNL1        0.0045
     23 C          66.7213   91.3546   13.9368 C.ar    1  UNL1        0.0002
     24 C          67.4373   93.2712   10.5362 C.2     1  UNL1        0.2492
     25 O          68.8123   92.8671   10.0934 O.2     1  UNL1       -0.2699
     26 N          66.7717   94.4658    9.9198 N.am    1  UNL1       -0.2709
     27 C          65.3967   94.8699   10.3627 C.3     1  UNL1        0.1258
     28 C          64.7310   96.0644    9.7462 C.3     1  UNL1        0.1637
     29 O          65.4404   96.8549    8.6870 O.3     1  UNL1       -0.3501
     30 C          66.8154   96.4508    8.2441 C.3     1  UNL1        0.1637
     31 C          67.4810   95.2562    8.8605 C.3     1  UNL1        0.1258
@<TRIPOS>BOND
     1    16    17    3
     2    17    10    1
     3    10    11   ar
     4    11    12   ar
     5    12    13   ar
     6    13     1    1
     7     1     2   ar
     8     2     3   ar
     9     3     4   ar
    10     4     5   ar
    11     5     6   ar
    12     6     7   ar
    13     7    18    1
    14    18    19   ar
    15    19    20   ar
    16    20    21   ar
    17    21    24    1
    18    24    25    2
    19    24    26   am
    20    26    27    1
    21    27    28    1
    22    28    29    1
    23    29    30    1
    24    30    31    1
    25    21    22   ar
    26    22    23   ar
    27     7     8   ar
    28     8     9   ar
    29    13    14   ar
    30    14    15   ar
    31    15    10   ar
    32     9     1   ar
    33     9     4   ar
    34    23    18   ar
    35    31    26    1
@<TRIPOS>MOLECULE
*****
 31 35 0 0 0
SMALL
GASTEIGER

@<TRIPOS>ATOM
      1 C          61.6291   85.8006   10.0968 C.ar    1  UNL1        0.0845
      2 C          60.7467   85.6555    8.8926 C.ar    1  UNL1        0.1180
      3 N          60.4461   87.0290    8.3700 N.ar    1  UNL1       -0.2249
      4 C          61.1427   88.0230    9.2514 C.ar    1  UNL1        0.1478
      5 C          61.2057   89.5213    9.2200 C.ar    1  UNL1        0.0374
      6 C          61.9999   90.2604   10.2558 C.ar    1  UNL1        0.0046
      7 C          62.7310   89.5012   11.3230 C.ar    1  UNL1        0.0177
      8 C          62.6680   88.0029   11.3544 C.ar    1  UNL1        0.0814
      9 N          61.8739   87.2638   10.3186 N.ar    1  UNL1       -0.2888
     10 C          63.2565   82.4369   12.6044 C.ar    1  UNL1        0.0684
     11 C          63.3088   82.3500   11.1078 C.ar    1  UNL1        0.0103
     12 C          62.7663   83.4712   10.2720 C.ar    1  UNL1        0.0022
     13 C          62.1716   84.6794   10.9326 C.ar    1  UNL1        0.0177
     14 C          62.1192   84.7663   12.4293 C.ar    1  UNL1        0.0022
     15 C          62.6617   83.6451   13.2651 C.ar    1  UNL1        0.0103
     16 N          64.3412   80.1945   14.2760 N.1     1  UNL1       -0.1908
     17 C          63.7989   81.3157   13.4402 C.1     1  UNL1        0.1004
     18 C          63.5252   90.2404   12.3589 C.ar    1  UNL1        0.0015
     19 C          63.5774   89.7307   13.7687 C.ar    1  UNL1        0.0002
     20 C          64.3716   90.4699   14.8045 C.ar    1  UNL1        0.0045
     21 C          65.1136   91.7187   14.4305 C.ar    1  UNL1        0.0536
     22 C          65.0614   92.2284   13.0207 C.ar    1  UNL1        0.0045
     23 C          64.2672   91.4892   11.9849 C.ar    1  UNL1        0.0002
     24 C          65.9078   92.4579   15.4663 C.2     1  UNL1        0.2492
     25 O          65.2361   92.9574   16.7110 O.2     1  UNL1       -0.2699
     26 N          67.3737   92.6976   15.2574 N.am    1  UNL1       -0.2709
     27 C          68.0454   92.1981   14.0126 C.3     1  UNL1        0.1258
     28 C          69.5113   92.4378   13.8037 C.3     1  UNL1        0.1637
     29 O          70.3055   93.1770   14.8395 O.3     1  UNL1       -0.3501
     30 C          69.6338   93.6765   16.0842 C.3     1  UNL1        0.1637
     31 C          68.1679   93.4368   16.2932 C.3     1  UNL1        0.1258
@<TRIPOS>BOND
     1    16    17    3
     2    17    10    1
     3    10    11   ar
     4    11    12   ar
     5    12    13   ar
     6    13     1    1
     7     1     2   ar
     8     2     3   ar
     9     3     4   ar
    10     4     5   ar
    11     5     6   ar
    12     6     7   ar
    13     7    18    1
    14    18    19   ar
    15    19    20   ar
    16    20    21   ar
    17    21    24    1
    18    24    25    2
    19    24    26   am
    20    26    27    1
    21    27    28    1
    22    28    29    1
    23    29    30    1
    24    30    31    1
    25    21    22   ar
    26    22    23   ar
    27     7     8   ar
    28     8     9   ar
    29    13    14   ar
    30    14    15   ar
    31    15    10   ar
    32     9     1   ar
    33     9     4   ar
    34    23    18   ar
    35    31    26    1
@<TRIPOS>MOLECULE
*****
 31 35 0 0 0
SMALL
GASTEIGER

@<TRIPOS>ATOM
      1 C          64.9066   91.6570   14.5735 C.ar    1  UNL1        0.0845
      2 C          64.6056   92.5810   15.7161 C.ar    1  UNL1        0.1180
      3 N          63.9246   91.7844   16.7893 N.ar    1  UNL1       -0.2249
      4 C          63.8049   90.3681   16.3100 C.ar    1  UNL1        0.1478
      5 C          63.2216   89.1400   16.9436 C.ar    1  UNL1        0.0374
      6 C          63.2452   87.8331   16.2077 C.ar    1  UNL1        0.0046
      7 C          63.8522   87.7544   14.8383 C.ar    1  UNL1        0.0177
      8 C          64.4354   88.9825   14.2047 C.ar    1  UNL1        0.0814
      9 N          64.4118   90.2893   14.9405 N.ar    1  UNL1       -0.2888
     10 C          66.9379   92.7890   10.7208 C.ar    1  UNL1        0.0684
     11 C          65.4404   92.7416   10.7934 C.ar    1  UNL1        0.0103
     12 C          64.7634   92.3642   12.0776 C.ar    1  UNL1        0.0022
     13 C          65.5837   92.0343   13.2893 C.ar    1  UNL1        0.0177
     14 C          67.0813   92.0817   13.2167 C.ar    1  UNL1        0.0022
     15 C          67.7583   92.4591   11.9324 C.ar    1  UNL1        0.0103
     16 N          68.2919   93.5437    8.1524 N.1     1  UNL1       -0.1908
     17 C          67.6149   93.1664    9.4366 C.1     1  UNL1        0.1004
     18 C          63.8758   86.4474   14.1024 C.ar    1  UNL1        0.0015
     19 C          64.6488   85.2880   14.6576 C.ar    1  UNL1        0.0002
     20 C          64.6724   83.9811   13.9217 C.ar    1  UNL1        0.0045
     21 C          63.9230   83.8336   12.6307 C.ar    1  UNL1        0.0536
     22 C          63.1500   84.9931   12.0756 C.ar    1  UNL1        0.0045
     23 C          63.1264   86.3000   12.8114 C.ar    1  UNL1        0.0002
     24 C          63.9466   82.5268   11.8949 C.2     1  UNL1        0.2492
     25 O          64.7971   82.3715   10.6691 O.2     1  UNL1       -0.2699
     26 N          63.1196   81.3752   12.3848 N.am    1  UNL1       -0.2709
     27 C          62.2691   81.5305   13.6105 C.3     1  UNL1        0.1258
     28 C          61.4421   80.3789   14.1004 C.3     1  UNL1        0.1637
     29 O          61.4657   79.0720   13.3646 O.3     1  UNL1       -0.3501
     30 C          62.3163   78.9167   12.1388 C.3     1  UNL1        0.1637
     31 C          63.1432   80.0683   11.6489 C.3     1  UNL1        0.1258
@<TRIPOS>BOND
     1    16    17    3
     2    17    10    1
     3    10    11   ar
     4    11    12   ar
     5    12    13   ar
     6    13     1    1
     7     1     2   ar
     8     2     3   ar
     9     3     4   ar
    10     4     5   ar
    11     5     6   ar
    12     6     7   ar
    13     7    18    1
    14    18    19   ar
    15    19    20   ar
    16    20    21   ar
    17    21    24    1
    18    24    25    2
    19    24    26   am
    20    26    27    1
    21    27    28    1
    22    28    29    1
    23    29    30    1
    24    30    31    1
    25    21    22   ar
    26    22    23   ar
    27     7     8   ar
    28     8     9   ar
    29    13    14   ar
    30    14    15   ar
    31    15    10   ar
    32     9     1   ar
    33     9     4   ar
    34    23    18   ar
    35    31    26    1
@<TRIPOS>MOLECULE
*****
 31 35 0 0 0
SMALL
GASTEIGER

@<TRIPOS>ATOM
      1 C          63.2638   93.4759    1.1747 C.ar    1  UNL1        0.0845
      2 C          64.7262   93.6583    1.4544 C.ar    1  UNL1        0.1180
      3 N          65.3655   94.2305    0.2240 N.ar    1  UNL1       -0.2249
      4 C          64.2983   94.4018   -0.8160 C.ar    1  UNL1        0.1478
      5 C          64.3415   94.9221   -2.2222 C.ar    1  UNL1        0.0374
      6 C          63.0857   94.9761   -3.0408 C.ar    1  UNL1        0.0046
      7 C          61.7868   94.5097   -2.4532 C.ar    1  UNL1        0.0177
      8 C          61.7436   93.9894   -1.0470 C.ar    1  UNL1        0.0814
      9 N          62.9994   93.9354   -0.2285 N.ar    1  UNL1       -0.2888
     10 C          60.2067   91.8378    4.0420 C.ar    1  UNL1        0.0684
     11 C          59.8335   92.9419    3.0977 C.ar    1  UNL1        0.0103
     12 C          60.8526   93.4879    2.1420 C.ar    1  UNL1        0.0022
     13 C          62.2448   92.9299    2.1305 C.ar    1  UNL1        0.0177
     14 C          62.6180   91.8257    3.0747 C.ar    1  UNL1        0.0022
     15 C          61.5990   91.2797    4.0305 C.ar    1  UNL1        0.0103
     16 N          58.1686   90.7459    5.9534 N.1     1  UNL1       -0.1908
     17 C          59.1877   91.2918    4.9977 C.1     1  UNL1        0.1004
     18 C          60.5310   94.5638   -3.2718 C.ar    1  UNL1        0.0015
     19 C          60.3235   95.6781   -4.2542 C.ar    1  UNL1        0.0002
     20 C          59.0676   95.7321   -5.0729 C.ar    1  UNL1        0.0045
     21 C          58.0194   94.6717   -4.9091 C.ar    1  UNL1        0.0536
     22 C          58.2270   93.5573   -3.9267 C.ar    1  UNL1        0.0045
     23 C          59.4828   93.5034   -3.1081 C.ar    1  UNL1        0.0002
     24 C          56.7637   94.7257   -5.7277 C.2     1  UNL1        0.2492
     25 O          56.7186   94.0701   -7.0761 O.2     1  UNL1       -0.2699
     26 N          55.5530   95.4353   -5.1979 N.am    1  UNL1       -0.2709
     27 C          55.5981   96.0909   -3.8495 C.3     1  UNL1        0.1258
     28 C          54.3874   96.8005   -3.3198 C.3     1  UNL1        0.1637
     29 O          53.1316   96.8545   -4.1383 O.3     1  UNL1       -0.3501
     30 C          53.0865   96.1989   -5.4867 C.3     1  UNL1        0.1637
     31 C          54.2972   95.4893   -6.0165 C.3     1  UNL1        0.1258
@<TRIPOS>BOND
     1    16    17    3
     2    17    10    1
     3    10    11   ar
     4    11    12   ar
     5    12    13   ar
     6    13     1    1
     7     1     2   ar
     8     2     3   ar
     9     3     4   ar
    10     4     5   ar
    11     5     6   ar
    12     6     7   ar
    13     7    18    1
    14    18    19   ar
    15    19    20   ar
    16    20    21   ar
    17    21    24    1
    18    24    25    2
    19    24    26   am
    20    26    27    1
    21    27    28    1
    22    28    29    1
    23    29    30    1
    24    30    31    1
    25    21    22   ar
    26    22    23   ar
    27     7     8   ar
    28     8     9   ar
    29    13    14   ar
    30    14    15   ar
    31    15    10   ar
    32     9     1   ar
    33     9     4   ar
    34    23    18   ar
    35    31    26    1
@<TRIPOS>MOLECULE
*****
 31 35 0 0 0
SMALL
GASTEIGER

@<TRIPOS>ATOM
      1 C          65.5559   92.0609   14.5968 C.ar    1  UNL1        0.0845
      2 C          65.4346   93.2314   15.5270 C.ar    1  UNL1        0.1180
      3 N          64.6367   92.7948   16.7197 N.ar    1  UNL1       -0.2249
      4 C          64.2649   91.3545   16.5268 C.ar    1  UNL1        0.1478
      5 C          63.4824   90.3974   17.3763 C.ar    1  UNL1        0.0374
      6 C          63.2681   88.9867   16.9137 C.ar    1  UNL1        0.0046
      7 C          63.8362   88.5331   15.6017 C.ar    1  UNL1        0.0177
      8 C          64.6187   89.4902   14.7522 C.ar    1  UNL1        0.0814
      9 N          64.8330   90.9009   15.2147 N.ar    1  UNL1       -0.2888
     10 C          67.7105   92.0340   10.6462 C.ar    1  UNL1        0.0684
     11 C          66.2483   92.3642   10.7009 C.ar    1  UNL1        0.0103
     12 C          65.5302   92.3731   12.0177 C.ar    1  UNL1        0.0022
     13 C          66.2741   92.0519   13.2799 C.ar    1  UNL1        0.0177
     14 C          67.7363   91.7217   13.2253 C.ar    1  UNL1        0.0022
     15 C          68.4545   91.7127   11.9084 C.ar    1  UNL1        0.0103
     16 N          69.1468   92.0161    8.0125 N.1     1  UNL1       -0.1908
     17 C          68.4286   92.0250    9.3293 C.1     1  UNL1        0.1004
     18 C          63.6218   87.1224   15.1391 C.ar    1  UNL1        0.0015
     19 C          63.4468   86.0222   16.1435 C.ar    1  UNL1        0.0002
     20 C          63.2324   84.6114   15.6810 C.ar    1  UNL1        0.0045
     21 C          63.1931   84.3009   14.2140 C.ar    1  UNL1        0.0536
     22 C          63.3681   85.4012   13.2096 C.ar    1  UNL1        0.0045
     23 C          63.5825   86.8119   13.6721 C.ar    1  UNL1        0.0002
     24 C          62.9787   82.8903   13.7514 C.2     1  UNL1        0.2492
     25 O          62.4557   81.8590   14.7069 O.2     1  UNL1       -0.2699
     26 N          63.2873   82.5109   12.3334 N.am    1  UNL1       -0.2709
     27 C          63.8103   83.5422   11.3780 C.3     1  UNL1        0.1258
     28 C          64.1189   83.1628    9.9599 C.3     1  UNL1        0.1637
     29 O          63.9046   81.7522    9.4973 O.3     1  UNL1       -0.3501
     30 C          63.3816   80.7208   10.4528 C.3     1  UNL1        0.1637
     31 C          63.0730   81.1002   11.8708 C.3     1  UNL1        0.1258
@<TRIPOS>BOND
     1    16    17    3
     2    17    10    1
     3    10    11   ar
     4    11    12   ar
     5    12    13   ar
     6    13     1    1
     7     1     2   ar
     8     2     3   ar
     9     3     4   ar
    10     4     5   ar
    11     5     6   ar
    12     6     7   ar
    13     7    18    1
    14    18    19   ar
    15    19    20   ar
    16    20    21   ar
    17    21    24    1
    18    24    25    2
    19    24    26   am
    20    26    27    1
    21    27    28    1
    22    28    29    1
    23    29    30    1
    24    30    31    1
    25    21    22   ar
    26    22    23   ar
    27     7     8   ar
    28     8     9   ar
    29    13    14   ar
    30    14    15   ar
    31    15    10   ar
    32     9     1   ar
    33     9     4   ar
    34    23    18   ar
    35    31    26    1
