@<TRIPOS>MOLECULE
*****
 32 34 0 0 0
SMALL
GASTEIGER

@<TRIPOS>ATOM
      1 S          62.7750   84.5619   15.3725 S.O2    1  UNL1        0.0736
      2 O          64.2341   84.2502   15.5270 O.2     1  UNL1       -0.1499
      3 O          61.3159   84.8736   15.2180 O.2     1  UNL1       -0.1499
      4 C          62.6410   83.4437   14.3817 C.ar    1  UNL1        0.1251
      5 C          63.4202   83.4794   13.1005 C.ar    1  UNL1        0.0240
      6 C          63.2862   82.3612   12.1098 C.ar    1  UNL1        0.0727
      7 C          62.3730   81.2072   12.4002 C.ar    1  UNL1        0.0078
      8 C          61.5939   81.1715   13.6814 C.ar    1  UNL1        0.0727
      9 C          61.7279   82.2897   14.6722 C.ar    1  UNL1        0.0240
     10 C          64.0654   82.3970   10.8285 C.3     1  UNL1        0.4186
     11 F          64.8446   82.4329    9.5473 F       1  UNL1       -0.1659
     12 F          63.2139   81.2908   10.2797 F       1  UNL1       -0.1659
     13 F          64.9169   83.5033   11.3773 F       1  UNL1       -0.1659
     14 C          60.6807   80.0174   13.9719 C.3     1  UNL1        0.4186
     15 F          59.7675   78.8635   14.2624 F       1  UNL1       -0.1659
     16 F          59.5709   80.9755   14.2890 F       1  UNL1       -0.1659
     17 F          61.7904   79.0594   13.6549 F       1  UNL1       -0.1659
     18 N          62.9090   85.6801   16.3633 N.pl3   1  UNL1       -0.2150
     19 H          62.6495   85.5394   17.3025 H       1  UNL1        0.1737
     20 C          64.4967   89.6782   15.0427 C.ar    1  UNL1        0.0002
     21 C          63.6583   89.5765   16.2823 C.ar    1  UNL1        0.0013
     22 C          63.1290   88.2438   16.7225 C.ar    1  UNL1        0.0159
     23 C          63.4382   87.0128   15.9231 C.ar    1  UNL1        0.0648
     24 C          64.2767   87.1145   14.6835 C.ar    1  UNL1        0.0159
     25 C          64.8059   88.4473   14.2433 C.ar    1  UNL1        0.0013
     26 C          65.4087   93.1356   11.2724 C.3     1  UNL1        0.0521
     27 C          65.4820   92.7396   12.7173 C.ar    1  UNL1        0.0594
     28 C          64.9528   91.4070   13.1576 C.ar    1  UNL1        0.0147
     29 C          65.0260   91.0110   14.6025 C.ar    1  UNL1        0.0027
     30 C          65.6284   91.9478   15.6072 C.ar    1  UNL1        0.0207
     31 C          66.1576   93.2804   15.1670 C.ar    1  UNL1        0.0984
     32 N          66.0844   93.6764   13.7221 N.ar    1  UNL1       -0.2481
@<TRIPOS>BOND
     1    26    27    1
     2    27    28   ar
     3    28    29   ar
     4    29    20    1
     5    20    21   ar
     6    21    22   ar
     7    22    23   ar
     8    23    18    1
     9    18     1    1
    10     1     2    2
    11     1     3    2
    12     1     4    1
    13     4     5   ar
    14     5     6   ar
    15     6    10    1
    16    10    11    1
    17    10    12    1
    18    10    13    1
    19     6     7   ar
    20     7     8   ar
    21     8    14    1
    22    14    15    1
    23    14    16    1
    24    14    17    1
    25     8     9   ar
    26    23    24   ar
    27    24    25   ar
    28    29    30   ar
    29    30    31   ar
    30    31    32   ar
    31    32    27   ar
    32    25    20   ar
    33     9     4   ar
    34    18    19    1
@<TRIPOS>MOLECULE
*****
 32 34 0 0 0
SMALL
GASTEIGER

@<TRIPOS>ATOM
      1 S          62.7764   84.5505   15.3797 S.O2    1  UNL1        0.0736
      2 O          64.2303   84.2236   15.5507 O.2     1  UNL1       -0.1499
      3 O          61.3224   84.8774   15.2088 O.2     1  UNL1       -0.1499
      4 C          62.6416   83.4328   14.3885 C.ar    1  UNL1        0.1251
      5 C          61.7248   82.2811   14.6769 C.ar    1  UNL1        0.0240
      6 C          61.5900   81.1634   13.6857 C.ar    1  UNL1        0.0727
      7 C          62.3720   81.1973   12.4061 C.ar    1  UNL1        0.0078
      8 C          63.2887   82.3489   12.1177 C.ar    1  UNL1        0.0727
      9 C          63.4235   83.4667   13.1089 C.ar    1  UNL1        0.0240
     10 C          60.6732   80.0117   13.9741 C.3     1  UNL1        0.4186
     11 F          59.7564   78.8601   14.2625 F       1  UNL1       -0.1659
     12 F          61.7814   79.0508   13.6602 F       1  UNL1       -0.1659
     13 F          59.5650   80.9725   14.2880 F       1  UNL1       -0.1659
     14 C          64.0707   82.3829   10.8381 C.3     1  UNL1        0.4186
     15 F          64.8527   82.4168    9.5585 F       1  UNL1       -0.1659
     16 F          63.2185   81.2779   10.2880 F       1  UNL1       -0.1659
     17 F          64.9229   83.4879   11.3882 F       1  UNL1       -0.1659
     18 N          62.9112   85.6682   16.3709 N.pl3   1  UNL1       -0.2150
     19 H          62.6535   85.5267   17.3105 H       1  UNL1        0.1737
     20 C          64.4932   89.6685   15.0499 C.ar    1  UNL1        0.0002
     21 C          63.6542   89.5658   16.2892 C.ar    1  UNL1        0.0013
     22 C          63.1269   88.2324   16.7295 C.ar    1  UNL1        0.0159
     23 C          63.4385   87.0016   15.9306 C.ar    1  UNL1        0.0648
     24 C          64.2774   87.1043   14.6914 C.ar    1  UNL1        0.0159
     25 C          64.8048   88.4378   14.2511 C.ar    1  UNL1        0.0013
     26 C          65.4058   93.1242   11.2783 C.3     1  UNL1        0.0521
     27 C          65.4768   92.7298   12.7238 C.ar    1  UNL1        0.0594
     28 C          64.9495   91.3964   13.1642 C.ar    1  UNL1        0.0147
     29 C          65.0205   91.0020   14.6096 C.ar    1  UNL1        0.0027
     30 C          65.6188   91.9409   15.6148 C.ar    1  UNL1        0.0207
     31 C          66.1461   93.2743   15.1744 C.ar    1  UNL1        0.0984
     32 N          66.0751   93.6688   13.7289 N.ar    1  UNL1       -0.2481
@<TRIPOS>BOND
     1    26    27    1
     2    27    28   ar
     3    28    29   ar
     4    29    20    1
     5    20    21   ar
     6    21    22   ar
     7    22    23   ar
     8    23    18    1
     9    18     1    1
    10     1     2    2
    11     1     3    2
    12     1     4    1
    13     4     5   ar
    14     5     6   ar
    15     6    10    1
    16    10    11    1
    17    10    12    1
    18    10    13    1
    19     6     7   ar
    20     7     8   ar
    21     8    14    1
    22    14    15    1
    23    14    16    1
    24    14    17    1
    25     8     9   ar
    26    23    24   ar
    27    24    25   ar
    28    29    30   ar
    29    30    31   ar
    30    31    32   ar
    31    32    27   ar
    32    25    20   ar
    33     9     4   ar
    34    18    19    1
@<TRIPOS>MOLECULE
*****
 32 34 0 0 0
SMALL
GASTEIGER

@<TRIPOS>ATOM
      1 S          63.3941   90.8399   11.9870 S.O2    1  UNL1        0.0736
      2 O          63.6741   90.9634   10.5186 O.2     1  UNL1       -0.1499
      3 O          63.1142   90.7165   13.4555 O.2     1  UNL1       -0.1499
      4 C          64.5709   91.7210   12.2854 C.ar    1  UNL1        0.1251
      5 C          65.2915   91.5921   13.5946 C.ar    1  UNL1        0.0240
      6 C          66.4682   92.4731   13.8930 C.ar    1  UNL1        0.0727
      7 C          66.9244   93.4831   12.8821 C.ar    1  UNL1        0.0078
      8 C          66.2038   93.6119   11.5729 C.ar    1  UNL1        0.0727
      9 C          65.0271   92.7309   11.2745 C.ar    1  UNL1        0.0240
     10 C          67.1888   92.3442   15.2023 C.3     1  UNL1        0.4186
     11 F          67.9093   92.2153   16.5116 F       1  UNL1       -0.1659
     12 F          67.1705   90.8506   15.0654 F       1  UNL1       -0.1659
     13 F          67.2071   93.8378   15.3393 F       1  UNL1       -0.1659
     14 C          66.6600   94.6219   10.5620 C.3     1  UNL1        0.4186
     15 F          67.1162   95.6318    9.5510 F       1  UNL1       -0.1659
     16 F          66.9218   93.5196    9.5789 F       1  UNL1       -0.1659
     17 F          66.3983   95.7242   11.5450 F       1  UNL1       -0.1659
     18 N          62.2174   89.9589   11.6887 N.pl3   1  UNL1       -0.2150
     19 H          61.3375   90.3592   11.5021 H       1  UNL1        0.1737
     20 C          62.7088   85.4860   11.6463 C.ar    1  UNL1        0.0002
     21 C          61.8440   86.1553   10.6195 C.ar    1  UNL1        0.0013
     22 C          61.6802   87.6462   10.6337 C.ar    1  UNL1        0.0159
     23 C          62.3812   88.4680   11.6745 C.ar    1  UNL1        0.0648
     24 C          63.2460   87.7987   12.7013 C.ar    1  UNL1        0.0159
     25 C          63.4098   86.3077   12.6871 C.ar    1  UNL1        0.0013
     26 C          61.9362   80.8528   13.8680 C.3     1  UNL1        0.0521
     27 C          62.4863   81.6784   12.7430 C.ar    1  UNL1        0.0594
     28 C          62.3226   83.1694   12.7571 C.ar    1  UNL1        0.0147
     29 C          62.8726   83.9950   11.6321 C.ar    1  UNL1        0.0027
     30 C          63.5865   83.3297   10.4929 C.ar    1  UNL1        0.0207
     31 C          63.7503   81.8388   10.4788 C.ar    1  UNL1        0.0984
     32 N          63.2002   81.0132   11.6038 N.ar    1  UNL1       -0.2481
@<TRIPOS>BOND
     1    26    27    1
     2    27    28   ar
     3    28    29   ar
     4    29    20    1
     5    20    21   ar
     6    21    22   ar
     7    22    23   ar
     8    23    18    1
     9    18     1    1
    10     1     2    2
    11     1     3    2
    12     1     4    1
    13     4     5   ar
    14     5     6   ar
    15     6    10    1
    16    10    11    1
    17    10    12    1
    18    10    13    1
    19     6     7   ar
    20     7     8   ar
    21     8    14    1
    22    14    15    1
    23    14    16    1
    24    14    17    1
    25     8     9   ar
    26    23    24   ar
    27    24    25   ar
    28    29    30   ar
    29    30    31   ar
    30    31    32   ar
    31    32    27   ar
    32    25    20   ar
    33     9     4   ar
    34    18    19    1
@<TRIPOS>MOLECULE
*****
 32 34 0 0 0
SMALL
GASTEIGER

@<TRIPOS>ATOM
      1 S          63.4030   90.8419   11.8721 S.O2    1  UNL1        0.0736
      2 O          63.1322   90.7104   13.3416 O.2     1  UNL1       -0.1499
      3 O          63.6739   90.9733   10.4026 O.2     1  UNL1       -0.1499
      4 C          64.5797   91.7239   12.1678 C.ar    1  UNL1        0.1251
      5 C          65.0775   92.6838   11.1283 C.ar    1  UNL1        0.0240
      6 C          66.2541   93.5659   11.4240 C.ar    1  UNL1        0.0727
      7 C          66.9330   93.4881   12.7593 C.ar    1  UNL1        0.0078
      8 C          66.4352   92.5281   13.7988 C.ar    1  UNL1        0.0727
      9 C          65.2585   91.6461   13.5031 C.ar    1  UNL1        0.0240
     10 C          66.7519   94.5258   10.3843 C.3     1  UNL1        0.4186
     11 F          67.2497   95.4858    9.3448 F       1  UNL1       -0.1659
     12 F          66.9294   93.3902    9.4206 F       1  UNL1       -0.1659
     13 F          66.5745   95.6615   11.3481 F       1  UNL1       -0.1659
     14 C          67.1140   92.4503   15.1342 C.3     1  UNL1        0.4186
     15 F          67.7928   92.3723   16.4695 F       1  UNL1       -0.1659
     16 F          67.0596   90.9525   15.0745 F       1  UNL1       -0.1659
     17 F          67.1684   93.9481   15.1940 F       1  UNL1       -0.1659
     18 N          62.2264   89.9598   11.5763 N.pl3   1  UNL1       -0.2150
     19 H          61.3498   90.3598   11.3745 H       1  UNL1        0.1737
     20 C          62.7033   85.4853   11.6117 C.ar    1  UNL1        0.0002
     21 C          61.8843   86.1438   10.5414 C.ar    1  UNL1        0.0013
     22 C          61.7253   87.6353   10.5296 C.ar    1  UNL1        0.0159
     23 C          62.3854   88.4683   11.5881 C.ar    1  UNL1        0.0648
     24 C          63.2044   87.8098   12.6585 C.ar    1  UNL1        0.0159
     25 C          63.3634   86.3183   12.6702 C.ar    1  UNL1        0.0013
     26 C          62.0382   80.9075   13.9785 C.3     1  UNL1        0.0521
     27 C          62.5297   81.7049   12.8069 C.ar    1  UNL1        0.0594
     28 C          62.3708   83.1964   12.7951 C.ar    1  UNL1        0.0147
     29 C          62.8623   83.9937   11.6235 C.ar    1  UNL1        0.0027
     30 C          63.5128   83.2996   10.4638 C.ar    1  UNL1        0.0207
     31 C          63.6717   81.8082   10.4756 C.ar    1  UNL1        0.0984
     32 N          63.1802   81.0108   11.6472 N.ar    1  UNL1       -0.2481
@<TRIPOS>BOND
     1    26    27    1
     2    27    28   ar
     3    28    29   ar
     4    29    20    1
     5    20    21   ar
     6    21    22   ar
     7    22    23   ar
     8    23    18    1
     9    18     1    1
    10     1     2    2
    11     1     3    2
    12     1     4    1
    13     4     5   ar
    14     5     6   ar
    15     6    10    1
    16    10    11    1
    17    10    12    1
    18    10    13    1
    19     6     7   ar
    20     7     8   ar
    21     8    14    1
    22    14    15    1
    23    14    16    1
    24    14    17    1
    25     8     9   ar
    26    23    24   ar
    27    24    25   ar
    28    29    30   ar
    29    30    31   ar
    30    31    32   ar
    31    32    27   ar
    32    25    20   ar
    33     9     4   ar
    34    18    19    1
@<TRIPOS>MOLECULE
*****
 32 34 0 0 0
SMALL
GASTEIGER

@<TRIPOS>ATOM
      1 S          62.7997   87.9545   12.5007 S.O2    1  UNL1        0.0736
      2 O          61.7051   88.4858   11.6234 O.2     1  UNL1       -0.1499
      3 O          63.8943   87.4233   13.3780 O.2     1  UNL1       -0.1499
      4 C          62.7600   86.6504   11.7606 C.ar    1  UNL1        0.1251
      5 C          62.3806   86.6228   10.3097 C.ar    1  UNL1        0.0240
      6 C          62.3409   85.3187    9.5696 C.ar    1  UNL1        0.0727
      7 C          62.6805   84.0422   10.2804 C.ar    1  UNL1        0.0078
      8 C          63.0599   84.0699   11.7314 C.ar    1  UNL1        0.0727
      9 C          63.0996   85.3740   12.4715 C.ar    1  UNL1        0.0240
     10 C          61.9615   85.2910    8.1186 C.3     1  UNL1        0.4186
     11 F          61.5820   85.2634    6.6677 F       1  UNL1       -0.1659
     12 F          63.1997   84.5028    7.8098 F       1  UNL1       -0.1659
     13 F          60.7232   86.0792    8.4274 F       1  UNL1       -0.1659
     14 C          63.3995   82.7934   12.4423 C.3     1  UNL1        0.4186
     15 F          63.7392   81.5171   13.1532 F       1  UNL1       -0.1659
     16 F          64.7083   83.3836   12.8765 F       1  UNL1       -0.1659
     17 F          62.0907   82.2033   12.0081 F       1  UNL1       -0.1659
     18 N          62.8395   89.2586   13.2408 N.pl3   1  UNL1       -0.2150
     19 H          62.3698   89.3509   14.1012 H       1  UNL1        0.1737
     20 C          65.1053   92.7493   11.5286 C.ar    1  UNL1        0.0002
     21 C          64.1074   92.0152   10.6828 C.ar    1  UNL1        0.0013
     22 C          63.3521   90.8517   11.2535 C.ar    1  UNL1        0.0159
     23 C          63.5947   90.4222   12.6701 C.ar    1  UNL1        0.0648
     24 C          64.5926   91.1562   13.5160 C.ar    1  UNL1        0.0159
     25 C          65.3479   92.3198   12.9452 C.ar    1  UNL1        0.0013
     26 C          67.9851   94.8180    7.7303 C.3     1  UNL1        0.0521
     27 C          67.3005   94.9472    9.0587 C.ar    1  UNL1        0.0594
     28 C          66.5452   93.7837    9.6295 C.ar    1  UNL1        0.0147
     29 C          65.8606   93.9128   10.9579 C.ar    1  UNL1        0.0027
     30 C          65.9312   95.2055   11.7155 C.ar    1  UNL1        0.0207
     31 C          66.6864   96.3690   11.1447 C.ar    1  UNL1        0.0984
     32 N          67.3711   96.2398    9.8163 N.ar    1  UNL1       -0.2481
@<TRIPOS>BOND
     1    26    27    1
     2    27    28   ar
     3    28    29   ar
     4    29    20    1
     5    20    21   ar
     6    21    22   ar
     7    22    23   ar
     8    23    18    1
     9    18     1    1
    10     1     2    2
    11     1     3    2
    12     1     4    1
    13     4     5   ar
    14     5     6   ar
    15     6    10    1
    16    10    11    1
    17    10    12    1
    18    10    13    1
    19     6     7   ar
    20     7     8   ar
    21     8    14    1
    22    14    15    1
    23    14    16    1
    24    14    17    1
    25     8     9   ar
    26    23    24   ar
    27    24    25   ar
    28    29    30   ar
    29    30    31   ar
    30    31    32   ar
    31    32    27   ar
    32    25    20   ar
    33     9     4   ar
    34    18    19    1
@<TRIPOS>MOLECULE
*****
 32 34 0 0 0
SMALL
GASTEIGER

@<TRIPOS>ATOM
      1 S          62.6305   88.0070   12.3370 S.O2    1  UNL1        0.0736
      2 O          61.4392   88.4066   11.5177 O.2     1  UNL1       -0.1499
      3 O          63.8217   87.6074   13.1564 O.2     1  UNL1       -0.1499
      4 C          62.6643   86.6792   11.6402 C.ar    1  UNL1        0.1251
      5 C          62.9922   85.4354   12.4118 C.ar    1  UNL1        0.0240
      6 C          63.0261   84.1075   11.7150 C.ar    1  UNL1        0.0727
      7 C          62.7320   84.0234   10.2465 C.ar    1  UNL1        0.0078
      8 C          62.4040   85.2672    9.4749 C.ar    1  UNL1        0.0727
      9 C          62.3702   86.5951   10.1718 C.ar    1  UNL1        0.0240
     10 C          63.3540   82.8637   12.4866 C.3     1  UNL1        0.4186
     11 F          63.6820   81.6199   13.2583 F       1  UNL1       -0.1659
     12 F          64.3893   83.6198   13.2654 F       1  UNL1       -0.1659
     13 F          62.3188   82.1076   11.7079 F       1  UNL1       -0.1659
     14 C          62.1099   85.1831    8.0064 C.3     1  UNL1        0.4186
     15 F          61.8158   85.0991    6.5379 F       1  UNL1       -0.1659
     16 F          63.2350   84.2057    7.8370 F       1  UNL1       -0.1659
     17 F          60.9848   86.1606    8.1757 F       1  UNL1       -0.1659
     18 N          62.5966   89.3349   13.0339 N.pl3   1  UNL1       -0.2150
     19 H          62.0447   89.4536   13.8405 H       1  UNL1        0.1737
     20 C          65.0177   92.7760   11.4377 C.ar    1  UNL1        0.0002
     21 C          65.1854   92.3380   12.8626 C.ar    1  UNL1        0.0013
     22 C          64.3784   91.1910   13.3946 C.ar    1  UNL1        0.0159
     23 C          63.4036   90.4819   12.5018 C.ar    1  UNL1        0.0648
     24 C          63.2359   90.9198   11.0770 C.ar    1  UNL1        0.0159
     25 C          64.0429   92.0669   10.5450 C.ar    1  UNL1        0.0013
     26 C          68.1426   94.7742    7.7988 C.3     1  UNL1        0.0521
     27 C          67.3872   94.9221    9.0862 C.ar    1  UNL1        0.0594
     28 C          66.5801   93.7751    9.6183 C.ar    1  UNL1        0.0147
     29 C          65.8247   93.9230   10.9057 C.ar    1  UNL1        0.0027
     30 C          65.8763   95.2179   11.6611 C.ar    1  UNL1        0.0207
     31 C          66.6834   96.3648   11.1290 C.ar    1  UNL1        0.0984
     32 N          67.4388   96.2170    9.8416 N.ar    1  UNL1       -0.2481
@<TRIPOS>BOND
     1    26    27    1
     2    27    28   ar
     3    28    29   ar
     4    29    20    1
     5    20    21   ar
     6    21    22   ar
     7    22    23   ar
     8    23    18    1
     9    18     1    1
    10     1     2    2
    11     1     3    2
    12     1     4    1
    13     4     5   ar
    14     5     6   ar
    15     6    10    1
    16    10    11    1
    17    10    12    1
    18    10    13    1
    19     6     7   ar
    20     7     8   ar
    21     8    14    1
    22    14    15    1
    23    14    16    1
    24    14    17    1
    25     8     9   ar
    26    23    24   ar
    27    24    25   ar
    28    29    30   ar
    29    30    31   ar
    30    31    32   ar
    31    32    27   ar
    32    25    20   ar
    33     9     4   ar
    34    18    19    1
@<TRIPOS>MOLECULE
*****
 32 34 0 0 0
SMALL
GASTEIGER

@<TRIPOS>ATOM
      1 S          63.9142   88.8735   15.2302 S.O2    1  UNL1        0.0736
      2 O          65.1970   88.1688   14.9017 O.2     1  UNL1       -0.1499
      3 O          62.6314   89.5781   15.5586 O.2     1  UNL1       -0.1499
      4 C          64.3424   90.0429   14.3940 C.ar    1  UNL1        0.1251
      5 C          63.7840   90.2223   13.0135 C.ar    1  UNL1        0.0240
      6 C          64.2123   91.3917   12.1773 C.ar    1  UNL1        0.0727
      7 C          65.1990   92.3816   12.7217 C.ar    1  UNL1        0.0078
      8 C          65.7574   92.2022   14.1023 C.ar    1  UNL1        0.0727
      9 C          65.3291   91.0328   14.9384 C.ar    1  UNL1        0.0240
     10 C          63.6538   91.5711   10.7967 C.3     1  UNL1        0.4186
     11 F          63.0954   91.7505    9.4162 F       1  UNL1       -0.1659
     12 F          62.4031   90.8532   11.2093 F       1  UNL1       -0.1659
     13 F          64.9046   92.2889   10.3841 F       1  UNL1       -0.1659
     14 C          66.7441   93.1922   14.6467 C.3     1  UNL1        0.4186
     15 F          67.7308   94.1821   15.1912 F       1  UNL1       -0.1659
     16 F          67.0732   92.2488   15.7655 F       1  UNL1       -0.1659
     17 F          66.4150   94.1356   13.5279 F       1  UNL1       -0.1659
     18 N          63.4859   87.7041   16.0663 N.pl3   1  UNL1       -0.2150
     19 H          63.3229   87.8215   17.0301 H       1  UNL1        0.1737
     20 C          62.9464   83.6592   14.1696 C.ar    1  UNL1        0.0002
     21 C          62.5009   83.8902   15.5831 C.ar    1  UNL1        0.0013
     22 C          62.6807   85.2384   16.2154 C.ar    1  UNL1        0.0159
     23 C          63.3061   86.3558   15.4341 C.ar    1  UNL1        0.0648
     24 C          63.7517   86.1249   14.0205 C.ar    1  UNL1        0.0159
     25 C          63.5718   84.7765   13.3883 C.ar    1  UNL1        0.0013
     26 C          63.2657   80.5605   10.0107 C.3     1  UNL1        0.0521
     27 C          62.9262   80.7615   11.4579 C.ar    1  UNL1        0.0594
     28 C          63.1060   82.1098   12.0902 C.ar    1  UNL1        0.0147
     29 C          62.7666   82.3108   13.5373 C.ar    1  UNL1        0.0027
     30 C          62.2472   81.1636   14.3523 C.ar    1  UNL1        0.0207
     31 C          62.0674   79.8154   13.7200 C.ar    1  UNL1        0.0984
     32 N          62.4069   79.6143   12.2728 N.ar    1  UNL1       -0.2481
@<TRIPOS>BOND
     1    26    27    1
     2    27    28   ar
     3    28    29   ar
     4    29    20    1
     5    20    21   ar
     6    21    22   ar
     7    22    23   ar
     8    23    18    1
     9    18     1    1
    10     1     2    2
    11     1     3    2
    12     1     4    1
    13     4     5   ar
    14     5     6   ar
    15     6    10    1
    16    10    11    1
    17    10    12    1
    18    10    13    1
    19     6     7   ar
    20     7     8   ar
    21     8    14    1
    22    14    15    1
    23    14    16    1
    24    14    17    1
    25     8     9   ar
    26    23    24   ar
    27    24    25   ar
    28    29    30   ar
    29    30    31   ar
    30    31    32   ar
    31    32    27   ar
    32    25    20   ar
    33     9     4   ar
    34    18    19    1
@<TRIPOS>MOLECULE
*****
 32 34 0 0 0
SMALL
GASTEIGER

@<TRIPOS>ATOM
      1 S          63.9387   88.8870   15.2156 S.O2    1  UNL1        0.0736
      2 O          62.6540   89.6022   15.5124 O.2     1  UNL1       -0.1499
      3 O          65.2234   88.1719   14.9188 O.2     1  UNL1       -0.1499
      4 C          64.3928   90.0486   14.3822 C.ar    1  UNL1        0.1251
      5 C          65.4081   91.0099   14.9252 C.ar    1  UNL1        0.0240
      6 C          65.8621   92.1715   14.0918 C.ar    1  UNL1        0.0727
      7 C          65.3008   92.3717   12.7153 C.ar    1  UNL1        0.0078
      8 C          64.2855   91.4104   12.1722 C.ar    1  UNL1        0.0727
      9 C          63.8315   90.2489   13.0057 C.ar    1  UNL1        0.0240
     10 C          66.8775   93.1328   14.6350 C.3     1  UNL1        0.4186
     11 F          67.8928   94.0940   15.1781 F       1  UNL1       -0.1659
     12 F          66.2961   94.2256   13.7879 F       1  UNL1       -0.1659
     13 F          67.4589   92.0400   15.4821 F       1  UNL1       -0.1659
     14 C          63.7242   91.6107   10.7957 C.3     1  UNL1        0.4186
     15 F          63.1629   91.8109    9.4192 F       1  UNL1       -0.1659
     16 F          62.5177   90.8019   11.1700 F       1  UNL1       -0.1659
     17 F          64.9307   92.4194   10.4213 F       1  UNL1       -0.1659
     18 N          63.4847   87.7254   16.0490 N.pl3   1  UNL1       -0.2150
     19 H          63.3034   87.8492   17.0087 H       1  UNL1        0.1737
     20 C          62.9511   83.6749   14.1627 C.ar    1  UNL1        0.0002
     21 C          62.5281   83.9020   15.5837 C.ar    1  UNL1        0.0013
     22 C          62.7060   85.2522   16.2125 C.ar    1  UNL1        0.0159
     23 C          63.3068   86.3753   15.4202 C.ar    1  UNL1        0.0648
     24 C          63.7299   86.1482   13.9991 C.ar    1  UNL1        0.0159
     25 C          63.5520   84.7979   13.3704 C.ar    1  UNL1        0.0013
     26 C          63.2893   80.5623   10.0157 C.3     1  UNL1        0.0521
     27 C          62.9424   80.7684   11.4604 C.ar    1  UNL1        0.0594
     28 C          63.1202   82.1185   12.0892 C.ar    1  UNL1        0.0147
     29 C          62.7733   82.3247   13.5339 C.ar    1  UNL1        0.0027
     30 C          62.2485   81.1806   14.3498 C.ar    1  UNL1        0.0207
     31 C          62.0707   79.8305   13.7210 C.ar    1  UNL1        0.0984
     32 N          62.4176   79.6244   12.2763 N.ar    1  UNL1       -0.2481
@<TRIPOS>BOND
     1    26    27    1
     2    27    28   ar
     3    28    29   ar
     4    29    20    1
     5    20    21   ar
     6    21    22   ar
     7    22    23   ar
     8    23    18    1
     9    18     1    1
    10     1     2    2
    11     1     3    2
    12     1     4    1
    13     4     5   ar
    14     5     6   ar
    15     6    10    1
    16    10    11    1
    17    10    12    1
    18    10    13    1
    19     6     7   ar
    20     7     8   ar
    21     8    14    1
    22    14    15    1
    23    14    16    1
    24    14    17    1
    25     8     9   ar
    26    23    24   ar
    27    24    25   ar
    28    29    30   ar
    29    30    31   ar
    30    31    32   ar
    31    32    27   ar
    32    25    20   ar
    33     9     4   ar
    34    18    19    1
@<TRIPOS>MOLECULE
*****
 32 34 0 0 0
SMALL
GASTEIGER

@<TRIPOS>ATOM
      1 S          61.9884   87.5491   10.7783 S.O2    1  UNL1        0.0736
      2 O          62.6638   88.2893    9.6621 O.2     1  UNL1       -0.1499
      3 O          61.3129   86.8089   11.8945 O.2     1  UNL1       -0.1499
      4 C          62.2640   86.2489   10.0829 C.ar    1  UNL1        0.1251
      5 C          62.8109   85.0859   10.8564 C.ar    1  UNL1        0.0240
      6 C          63.0866   83.7857   10.1610 C.ar    1  UNL1        0.0727
      7 C          62.8154   83.6486    8.6922 C.ar    1  UNL1        0.0078
      8 C          62.2684   84.8115    7.9187 C.ar    1  UNL1        0.0727
      9 C          61.9928   86.1117    8.6141 C.ar    1  UNL1        0.0240
     10 C          63.6336   82.6227   10.9346 C.3     1  UNL1        0.4186
     11 F          64.1805   81.4598   11.7081 F       1  UNL1       -0.1659
     12 F          64.7327   82.4685    9.9256 F       1  UNL1       -0.1659
     13 F          62.5344   82.7770   11.9435 F       1  UNL1       -0.1659
     14 C          61.9971   84.6744    6.4498 C.3     1  UNL1        0.4186
     15 F          61.7258   84.5373    4.9810 F       1  UNL1       -0.1659
     16 F          60.5309   84.8641    6.7029 F       1  UNL1       -0.1659
     17 F          63.4634   84.4847    6.1967 F       1  UNL1       -0.1659
     18 N          61.7127   88.8492   11.4737 N.pl3   1  UNL1       -0.2150
     19 H          60.8102   89.2416   11.4442 H       1  UNL1        0.1737
     20 C          65.0106   90.9563   13.6950 C.ar    1  UNL1        0.0002
     21 C          64.5697   89.5892   14.1270 C.ar    1  UNL1        0.0013
     22 C          63.4704   88.8868   13.3866 C.ar    1  UNL1        0.0159
     23 C          62.8120   89.5516   12.2141 C.ar    1  UNL1        0.0648
     24 C          63.2528   90.9187   11.7821 C.ar    1  UNL1        0.0159
     25 C          64.3522   91.6211   12.5226 C.ar    1  UNL1        0.0013
     26 C          69.9906   92.3957   14.0522 C.3     1  UNL1        0.0521
     27 C          68.5999   92.3783   14.6140 C.ar    1  UNL1        0.0594
     28 C          67.5006   91.6760   13.8736 C.ar    1  UNL1        0.0147
     29 C          66.1099   91.6586   14.4355 C.ar    1  UNL1        0.0027
     30 C          65.8185   92.3435   15.7378 C.ar    1  UNL1        0.0207
     31 C          66.9179   93.0458   16.4782 C.ar    1  UNL1        0.0984
     32 N          68.3085   93.0632   15.9163 N.ar    1  UNL1       -0.2481
@<TRIPOS>BOND
     1    26    27    1
     2    27    28   ar
     3    28    29   ar
     4    29    20    1
     5    20    21   ar
     6    21    22   ar
     7    22    23   ar
     8    23    18    1
     9    18     1    1
    10     1     2    2
    11     1     3    2
    12     1     4    1
    13     4     5   ar
    14     5     6   ar
    15     6    10    1
    16    10    11    1
    17    10    12    1
    18    10    13    1
    19     6     7   ar
    20     7     8   ar
    21     8    14    1
    22    14    15    1
    23    14    16    1
    24    14    17    1
    25     8     9   ar
    26    23    24   ar
    27    24    25   ar
    28    29    30   ar
    29    30    31   ar
    30    31    32   ar
    31    32    27   ar
    32    25    20   ar
    33     9     4   ar
    34    18    19    1
