@<TRIPOS>MOLECULE
*****
 39 44 0 0 0
SMALL
GASTEIGER

@<TRIPOS>ATOM
      1 C          64.3791   89.9086   13.8076 C.ar    1  UNL1        0.0251
      2 C          64.6691   88.5893   14.4599 C.ar    1  UNL1        0.0233
      3 C          63.8773   87.5348   13.7450 C.ar    1  UNL1        0.0918
      4 N          63.7652   86.0530   13.9489 N.ar    1  UNL1       -0.2262
      5 C          62.8738   85.2388   13.0586 C.ar    1  UNL1        0.1607
      6 N          62.0946   85.9063   11.9646 N.ar    1  UNL1       -0.2117
      7 C          62.2067   87.3881   11.7606 C.ar    1  UNL1        0.1409
      8 C          63.0980   88.2024   12.6508 C.ar    1  UNL1        0.0785
      9 S          63.4082   89.6695   12.6896 S.2     1  UNL1       -0.0856
     10 C          62.7617   83.7568   13.2626 C.2     1  UNL1        0.0332
     11 C          62.3223   83.2135   14.5899 C.2     1  UNL1        0.0501
     12 C          62.2102   81.7317   14.7938 C.2     1  UNL1        0.2355
     13 N          62.5376   80.7932   13.6704 N.2     1  UNL1       -0.0341
     14 C          62.9770   81.3365   12.3431 C.2     1  UNL1        0.3594
     15 N          63.3634   80.6615   11.0605 N.2     1  UNL1       -0.0344
     16 C          63.7143   81.7262   10.0638 C.2     1  UNL1        0.2320
     17 C          63.5447   83.0592   10.7306 C.2     1  UNL1        0.0409
     18 C          63.0891   82.8183   12.1392 C.3     1  UNL1        0.1630
     19 N          61.4274   88.0557   10.6665 N.pl3   1  UNL1       -0.2876
     20 C          61.1847   87.3368    9.3725 C.3     1  UNL1        0.1243
     21 C          60.4055   88.0042    8.2784 C.3     1  UNL1        0.1636
     22 O          59.8689   89.3907    8.4781 O.3     1  UNL1       -0.3501
     23 C          60.1116   90.1096    9.7721 C.3     1  UNL1        0.1636
     24 C          60.8908   89.4421   10.8663 C.3     1  UNL1        0.1243
     25 C          64.9585   91.2342   14.2039 C.3     1  UNL1        0.1058
     26 N          65.9290   94.2975   11.0535 N.3     1  UNL1       -0.2655
     27 C          65.0616   93.1217   10.7142 C.3     1  UNL1        0.0900
     28 C          64.7381   92.1006   11.7644 C.3     1  UNL1        0.0899
     29 N          65.2820   92.2553   13.1538 N.3     1  UNL1       -0.2661
     30 C          66.1494   93.4312   13.4929 C.3     1  UNL1        0.0899
     31 C          66.4728   94.4522   12.4428 C.3     1  UNL1        0.0900
     32 C          67.1390   94.3261    9.3114 C.3     1  UNL1        0.0253
     33 C          66.2525   95.3186   10.0034 C.3     1  UNL1        0.1145
     34 C          65.3659   96.3111   10.6954 C.3     1  UNL1        0.0253
     35 C          66.5760   96.3396    8.9533 C.2     1  UNL1        0.2321
     36 N          67.9805   96.8456    8.8067 N.am    1  UNL1       -0.3278
     37 O          65.4952   96.8547    8.0497 O.2     1  UNL1       -0.2740
     38 H          68.6900   96.5075    9.3997 H       1  UNL1        0.1450
     39 H          68.1929   97.5157    8.1174 H       1  UNL1        0.1450
@<TRIPOS>BOND
     1    32    33    1
     2    33    34    1
     3    33    35    1
     4    35    36   am
     5    35    37    2
     6    33    26    1
     7    26    27    1
     8    27    28    1
     9    28    29    1
    10    29    25    1
    11    25     1    1
    12     1     2   ar
    13     2     3   ar
    14     3     4   ar
    15     4     5   ar
    16     5    10    1
    17    10    11    2
    18    11    12    1
    19    12    13    2
    20    13    14    1
    21    14    15    2
    22    15    16    1
    23    16    17    2
    24    17    18    1
    25     5     6   ar
    26     6     7   ar
    27     7    19    1
    28    19    20    1
    29    20    21    1
    30    21    22    1
    31    22    23    1
    32    23    24    1
    33     7     8   ar
    34     8     9   ar
    35    29    30    1
    36    30    31    1
    37    31    26    1
    38     9     1   ar
    39     8     3   ar
    40    18    10    1
    41    24    19    1
    42    18    14    1
    43    36    38    1
    44    36    39    1
@<TRIPOS>MOLECULE
*****
 39 44 0 0 0
SMALL
GASTEIGER

@<TRIPOS>ATOM
      1 C          63.4035   88.9607   12.9721 C.ar    1  UNL1        0.0251
      2 C          63.8838   87.6156   13.4304 C.ar    1  UNL1        0.0233
      3 C          63.2838   86.5774   12.5292 C.ar    1  UNL1        0.0918
      4 N          63.4026   85.0824   12.5019 N.ar    1  UNL1       -0.2262
      5 C          62.6701   84.2908   11.4593 C.ar    1  UNL1        0.1607
      6 N          61.8190   84.9942   10.4441 N.ar    1  UNL1       -0.2117
      7 C          61.7002   86.4892   10.4714 C.ar    1  UNL1        0.1409
      8 C          62.4326   87.2808   11.5139 C.ar    1  UNL1        0.0785
      9 S          62.5066   88.7538   11.7877 S.2     1  UNL1       -0.0856
     10 C          62.7889   82.7956   11.4320 C.2     1  UNL1        0.0332
     11 C          63.3453   82.1095   10.2197 C.2     1  UNL1        0.0501
     12 C          63.4640   80.6145   10.1924 C.2     1  UNL1        0.2355
     13 N          63.0264   79.8056   11.3774 N.2     1  UNL1       -0.0341
     14 C          62.4700   80.4917   12.5897 C.2     1  UNL1        0.3594
     15 N          61.9609   79.9623   13.8976 N.2     1  UNL1       -0.0344
     16 C          61.5275   81.1302   14.7332 C.2     1  UNL1        0.2320
     17 C          61.7688   82.3814   13.9417 C.2     1  UNL1        0.0409
     18 C          62.3513   81.9868   12.6170 C.3     1  UNL1        0.1630
     19 N          60.8491   87.1926    9.4561 N.pl3   1  UNL1       -0.2876
     20 C          60.0166   86.3970    8.4947 C.3     1  UNL1        0.1243
     21 C          59.1655   87.1004    7.4795 C.3     1  UNL1        0.1636
     22 O          59.1467   88.5993    7.4256 O.3     1  UNL1       -0.3501
     23 C          59.9791   89.3948    8.3869 C.3     1  UNL1        0.1636
     24 C          60.8303   88.6915    9.4023 C.3     1  UNL1        0.1243
     25 C          63.7577   90.2809   13.5897 C.3     1  UNL1        0.1058
     26 N          65.9633   93.3740   11.1776 N.3     1  UNL1       -0.2655
     27 C          66.3824   93.0843   12.5885 C.3     1  UNL1        0.0900
     28 C          65.6472   92.0532   13.3925 C.3     1  UNL1        0.0899
     29 N          64.4929   91.3119   12.7857 N.3     1  UNL1       -0.2661
     30 C          64.0739   91.6017   11.3748 C.3     1  UNL1        0.0899
     31 C          64.8091   92.6327   10.5709 C.3     1  UNL1        0.0900
     32 C          65.8980   95.4893   11.0321 C.3     1  UNL1        0.0253
     33 C          66.6985   94.4050   10.3736 C.3     1  UNL1        0.1145
     34 C          67.4989   93.3208    9.7151 C.3     1  UNL1        0.0253
     35 C          67.4335   95.4361    9.5696 C.2     1  UNL1        0.2321
     36 N          68.0982   95.0491    8.2818 N.am    1  UNL1       -0.3278
     37 O          67.5040   96.8542   10.0533 O.2     1  UNL1       -0.2740
     38 H          68.0520   94.1184    7.9642 H       1  UNL1        0.1450
     39 H          68.5807   95.7259    7.7541 H       1  UNL1        0.1450
@<TRIPOS>BOND
     1    32    33    1
     2    33    34    1
     3    33    35    1
     4    35    36   am
     5    35    37    2
     6    33    26    1
     7    26    27    1
     8    27    28    1
     9    28    29    1
    10    29    25    1
    11    25     1    1
    12     1     2   ar
    13     2     3   ar
    14     3     4   ar
    15     4     5   ar
    16     5    10    1
    17    10    11    2
    18    11    12    1
    19    12    13    2
    20    13    14    1
    21    14    15    2
    22    15    16    1
    23    16    17    2
    24    17    18    1
    25     5     6   ar
    26     6     7   ar
    27     7    19    1
    28    19    20    1
    29    20    21    1
    30    21    22    1
    31    22    23    1
    32    23    24    1
    33     7     8   ar
    34     8     9   ar
    35    29    30    1
    36    30    31    1
    37    31    26    1
    38     9     1   ar
    39     8     3   ar
    40    18    10    1
    41    24    19    1
    42    18    14    1
    43    36    38    1
    44    36    39    1
@<TRIPOS>MOLECULE
*****
 39 44 0 0 0
SMALL
GASTEIGER

@<TRIPOS>ATOM
      1 C          59.6295   88.7917    7.9749 C.ar    1  UNL1        0.0251
      2 C          59.7306   87.2967    8.0442 C.ar    1  UNL1        0.0233
      3 C          60.7518   86.9491    9.0865 C.ar    1  UNL1        0.0918
      4 N          61.2675   85.6322    9.5864 N.ar    1  UNL1       -0.2262
      5 C          62.3133   85.5956   10.6612 C.ar    1  UNL1        0.1607
      6 N          62.8432   86.8756   11.2361 N.ar    1  UNL1       -0.2117
      7 C          62.3275   88.1924   10.7362 C.ar    1  UNL1        0.1409
      8 C          61.2818   88.2292    9.6614 C.ar    1  UNL1        0.0785
      9 S          60.5881   89.3680    8.9744 S.2     1  UNL1       -0.0856
     10 C          62.8291   84.2786   11.1612 C.2     1  UNL1        0.0332
     11 C          63.3912   83.2779   10.1955 C.2     1  UNL1        0.0501
     12 C          63.9070   81.9611   10.6955 C.2     1  UNL1        0.2355
     13 N          63.8606   81.6450   12.1610 N.2     1  UNL1       -0.0341
     14 C          63.2985   82.6457   13.1267 C.2     1  UNL1        0.3594
     15 N          63.1237   82.6147   14.6162 N.2     1  UNL1       -0.0344
     16 C          62.4999   83.9124   15.0368 C.2     1  UNL1        0.2320
     17 C          62.2892   84.7454   13.8072 C.2     1  UNL1        0.0409
     18 C          62.7827   83.9625   12.6268 C.3     1  UNL1        0.1630
     19 N          62.8574   89.4726   11.3110 N.pl3   1  UNL1       -0.2876
     20 C          63.2554   90.5958   10.3999 C.3     1  UNL1        0.1243
     21 C          63.7853   91.8759   10.9747 C.3     1  UNL1        0.1636
     22 O          63.9174   92.0328   12.4607 O.3     1  UNL1       -0.3501
     23 C          63.5194   90.9096   13.3717 C.3     1  UNL1        0.1636
     24 C          62.9895   89.6295   12.7969 C.3     1  UNL1        0.1243
     25 C          58.7280   89.5732    7.0658 C.3     1  UNL1        0.1058
     26 N          60.4780   92.0033    3.7069 N.3     1  UNL1       -0.2655
     27 C          59.0384   92.1800    4.0895 C.3     1  UNL1        0.0900
     28 C          58.4551   91.3699    5.2092 C.3     1  UNL1        0.0899
     29 N          59.3113   90.3832    5.9462 N.3     1  UNL1       -0.2661
     30 C          60.7510   90.2065    5.5636 C.3     1  UNL1        0.0899
     31 C          61.3342   91.0166    4.4440 C.3     1  UNL1        0.0900
     32 C          59.7009   93.3634    2.2764 C.3     1  UNL1        0.0253
     33 C          61.0614   92.8134    2.5873 C.3     1  UNL1        0.1145
     34 C          62.4218   92.2633    2.8982 C.3     1  UNL1        0.0253
     35 C          61.6446   93.6234    1.4677 C.2     1  UNL1        0.2321
     36 N          63.0627   93.3940    1.0357 N.am    1  UNL1       -0.3278
     37 O          60.8100   94.6628    0.7801 O.2     1  UNL1       -0.2740
     38 H          63.6105   92.7118    1.4870 H       1  UNL1        0.1450
     39 H          63.4455   93.9257    0.3008 H       1  UNL1        0.1450
@<TRIPOS>BOND
     1    32    33    1
     2    33    34    1
     3    33    35    1
     4    35    36   am
     5    35    37    2
     6    33    26    1
     7    26    27    1
     8    27    28    1
     9    28    29    1
    10    29    25    1
    11    25     1    1
    12     1     2   ar
    13     2     3   ar
    14     3     4   ar
    15     4     5   ar
    16     5    10    1
    17    10    11    2
    18    11    12    1
    19    12    13    2
    20    13    14    1
    21    14    15    2
    22    15    16    1
    23    16    17    2
    24    17    18    1
    25     5     6   ar
    26     6     7   ar
    27     7    19    1
    28    19    20    1
    29    20    21    1
    30    21    22    1
    31    22    23    1
    32    23    24    1
    33     7     8   ar
    34     8     9   ar
    35    29    30    1
    36    30    31    1
    37    31    26    1
    38     9     1   ar
    39     8     3   ar
    40    18    10    1
    41    24    19    1
    42    18    14    1
    43    36    38    1
    44    36    39    1
@<TRIPOS>MOLECULE
*****
 39 44 0 0 0
SMALL
GASTEIGER

@<TRIPOS>ATOM
      1 C          59.5817   88.8114    8.1621 C.ar    1  UNL1        0.0251
      2 C          59.5525   87.3656    8.5607 C.ar    1  UNL1        0.0233
      3 C          60.5853   87.1583    9.6285 C.ar    1  UNL1        0.0918
      4 N          61.0042   85.9399   10.3966 N.ar    1  UNL1       -0.2262
      5 C          62.0906   86.0392   11.4262 C.ar    1  UNL1        0.1607
      6 N          62.7581   87.3567   11.6875 N.ar    1  UNL1       -0.2117
      7 C          62.3392   88.5751   10.9194 C.ar    1  UNL1        0.1409
      8 C          61.2528   88.4759    9.8899 C.ar    1  UNL1        0.0785
      9 S          60.6326   89.4976    8.9836 S.2     1  UNL1       -0.0856
     10 C          62.5095   84.8207   12.1944 C.2     1  UNL1        0.0332
     11 C          62.1628   84.6948   13.6483 C.2     1  UNL1        0.0501
     12 C          62.5817   83.4764   14.4164 C.2     1  UNL1        0.2355
     13 N          63.3473   82.3839   13.7306 N.2     1  UNL1       -0.0341
     14 C          63.6940   82.5098   12.2767 C.2     1  UNL1        0.3594
     15 N          64.4342   81.6026   11.3392 N.2     1  UNL1       -0.0344
     16 C          64.4728   82.2602    9.9916 C.2     1  UNL1        0.2320
     17 C          63.7564   83.5740   10.0963 C.2     1  UNL1        0.0409
     18 C          63.2751   83.7282   11.5086 C.3     1  UNL1        0.1630
     19 N          63.0067   89.8927   11.1808 N.pl3   1  UNL1       -0.2876
     20 C          63.2152   90.8640   10.0567 C.3     1  UNL1        0.1243
     21 C          63.8827   92.1815   10.3180 C.3     1  UNL1        0.1636
     22 O          64.3418   92.5280   11.7034 O.3     1  UNL1       -0.3501
     23 C          64.1333   91.5568   12.8274 C.3     1  UNL1        0.1636
     24 C          63.4658   90.2392   12.5661 C.3     1  UNL1        0.1243
     25 C          58.7126   89.4575    7.1242 C.3     1  UNL1        0.1058
     26 N          60.5718   91.9222    3.8502 N.3     1  UNL1       -0.2655
     27 C          61.3888   90.8879    4.5663 C.3     1  UNL1        0.0900
     28 C          60.7690   90.0664    5.6577 C.3     1  UNL1        0.0899
     29 N          59.3323   90.2791    6.0329 N.3     1  UNL1       -0.2661
     30 C          58.5154   91.3134    5.3167 C.3     1  UNL1        0.0899
     31 C          59.1352   92.1350    4.2254 C.3     1  UNL1        0.0900
     32 C          62.5036   92.0526    2.9836 C.3     1  UNL1        0.0253
     33 C          61.1915   92.7438    2.7589 C.3     1  UNL1        0.1145
     34 C          59.8793   93.4350    2.5341 C.3     1  UNL1        0.0253
     35 C          61.8112   93.5653    1.6676 C.2     1  UNL1        0.2321
     36 N          61.0306   94.6760    1.0295 N.am    1  UNL1       -0.3278
     37 O          63.2115   93.2762    1.2142 O.2     1  UNL1       -0.2740
     38 H          60.1116   94.8658    1.3270 H       1  UNL1        0.1450
     39 H          61.4374   95.2152    0.3132 H       1  UNL1        0.1450
@<TRIPOS>BOND
     1    32    33    1
     2    33    34    1
     3    33    35    1
     4    35    36   am
     5    35    37    2
     6    33    26    1
     7    26    27    1
     8    27    28    1
     9    28    29    1
    10    29    25    1
    11    25     1    1
    12     1     2   ar
    13     2     3   ar
    14     3     4   ar
    15     4     5   ar
    16     5    10    1
    17    10    11    2
    18    11    12    1
    19    12    13    2
    20    13    14    1
    21    14    15    2
    22    15    16    1
    23    16    17    2
    24    17    18    1
    25     5     6   ar
    26     6     7   ar
    27     7    19    1
    28    19    20    1
    29    20    21    1
    30    21    22    1
    31    22    23    1
    32    23    24    1
    33     7     8   ar
    34     8     9   ar
    35    29    30    1
    36    30    31    1
    37    31    26    1
    38     9     1   ar
    39     8     3   ar
    40    18    10    1
    41    24    19    1
    42    18    14    1
    43    36    38    1
    44    36    39    1
@<TRIPOS>MOLECULE
*****
 39 44 0 0 0
SMALL
GASTEIGER

@<TRIPOS>ATOM
      1 C          60.0506   89.1407    8.3937 C.ar    1  UNL1        0.0251
      2 C          60.3929   90.2955    9.2878 C.ar    1  UNL1        0.0233
      3 C          61.2987   89.7901   10.3714 C.ar    1  UNL1        0.0918
      4 N          61.9535   90.4763   11.5334 N.ar    1  UNL1       -0.2262
      5 C          62.8258   89.6953   12.4711 C.ar    1  UNL1        0.1607
      6 N          63.0432   88.2283   12.2468 N.ar    1  UNL1       -0.2117
      7 C          62.3884   87.5421   11.0848 C.ar    1  UNL1        0.1409
      8 C          61.5161   88.3230   10.1471 C.ar    1  UNL1        0.0785
      9 S          60.7448   87.9216    8.9248 S.2     1  UNL1       -0.0856
     10 C          63.4806   90.3816   13.6332 C.2     1  UNL1        0.0332
     11 C          63.1163   89.9938   15.0357 C.2     1  UNL1        0.0501
     12 C          63.7711   90.6800   16.1977 C.2     1  UNL1        0.2355
     13 N          64.7903   91.7540   15.9572 N.2     1  UNL1       -0.0341
     14 C          65.1547   92.1418   14.5548 C.2     1  UNL1        0.3594
     15 N          66.1167   93.1565   14.0118 N.2     1  UNL1       -0.0344
     16 C          66.0565   93.0974   12.5142 C.2     1  UNL1        0.2320
     17 C          65.0572   92.0461   12.1316 C.2     1  UNL1        0.0409
     18 C          64.4998   91.4556   13.3928 C.3     1  UNL1        0.1630
     19 N          62.6059   86.0750   10.8605 N.pl3   1  UNL1       -0.2876
     20 C          62.4680   85.1130   12.0032 C.3     1  UNL1        0.1243
     21 C          62.6855   83.6460   11.7790 C.3     1  UNL1        0.1636
     22 O          63.0408   83.1407   10.4120 O.3     1  UNL1       -0.3501
     23 C          63.1786   84.1027    9.2693 C.3     1  UNL1        0.1636
     24 C          62.9612   85.5698    9.4936 C.3     1  UNL1        0.1243
     25 C          59.1690   89.1954    7.1814 C.3     1  UNL1        0.1058
     26 N          60.2180   91.9202    3.7572 N.3     1  UNL1       -0.2655
     27 C          58.8061   91.8568    4.2599 C.3     1  UNL1        0.0900
     28 C          58.4565   90.9485    5.4013 C.3     1  UNL1        0.0899
     29 N          59.5187   90.1036    6.0401 N.3     1  UNL1       -0.2661
     30 C          60.9305   90.1670    5.5373 C.3     1  UNL1        0.0899
     31 C          61.2802   91.0753    4.3960 C.3     1  UNL1        0.0900
     32 C          59.1091   93.0414    2.3384 C.3     1  UNL1        0.0253
     33 C          60.5677   92.8284    2.6158 C.3     1  UNL1        0.1145
     34 C          62.0264   92.6154    2.8933 C.3     1  UNL1        0.0253
     35 C          60.9173   93.7367    1.4745 C.2     1  UNL1        0.2321
     36 N          60.0207   94.8892    1.1313 N.am    1  UNL1       -0.3278
     37 O          62.1635   93.4925    0.6761 O.2     1  UNL1       -0.2740
     38 H          59.2028   95.0496    1.6553 H       1  UNL1        0.1450
     39 H          60.2502   95.4854    0.3822 H       1  UNL1        0.1450
@<TRIPOS>BOND
     1    32    33    1
     2    33    34    1
     3    33    35    1
     4    35    36   am
     5    35    37    2
     6    33    26    1
     7    26    27    1
     8    27    28    1
     9    28    29    1
    10    29    25    1
    11    25     1    1
    12     1     2   ar
    13     2     3   ar
    14     3     4   ar
    15     4     5   ar
    16     5    10    1
    17    10    11    2
    18    11    12    1
    19    12    13    2
    20    13    14    1
    21    14    15    2
    22    15    16    1
    23    16    17    2
    24    17    18    1
    25     5     6   ar
    26     6     7   ar
    27     7    19    1
    28    19    20    1
    29    20    21    1
    30    21    22    1
    31    22    23    1
    32    23    24    1
    33     7     8   ar
    34     8     9   ar
    35    29    30    1
    36    30    31    1
    37    31    26    1
    38     9     1   ar
    39     8     3   ar
    40    18    10    1
    41    24    19    1
    42    18    14    1
    43    36    38    1
    44    36    39    1
@<TRIPOS>MOLECULE
*****
 39 44 0 0 0
SMALL
GASTEIGER

@<TRIPOS>ATOM
      1 C          63.0861   89.4273   11.8500 C.ar    1  UNL1        0.0251
      2 C          63.5251   88.3940   12.8448 C.ar    1  UNL1        0.0233
      3 C          62.9979   87.0638   12.3946 C.ar    1  UNL1        0.0918
      4 N          63.1156   85.6876   12.9794 N.ar    1  UNL1       -0.2262
      5 C          62.4683   84.5224   12.2911 C.ar    1  UNL1        0.1607
      6 N          61.7036   84.7336   11.0182 N.ar    1  UNL1       -0.2117
      7 C          61.5859   86.1098   10.4334 C.ar    1  UNL1        0.1409
      8 C          62.2331   87.2750   11.1216 C.ar    1  UNL1        0.0785
      9 S          62.2876   88.7357   10.7850 S.2     1  UNL1       -0.0856
     10 C          62.5859   83.1460   12.8760 C.2     1  UNL1        0.0332
     11 C          62.5253   82.9551   14.3625 C.2     1  UNL1        0.0501
     12 C          62.6429   81.5788   14.9473 C.2     1  UNL1        0.2355
     13 N          62.8211   80.3935   14.0455 N.2     1  UNL1       -0.0341
     14 C          62.8818   80.5844   12.5590 C.2     1  UNL1        0.3594
     15 N          63.0494   79.6131   11.4283 N.2     1  UNL1       -0.0344
     16 C          63.0353   80.3890   10.1447 C.2     1  UNL1        0.2320
     17 C          62.8591   81.8400   10.4821 C.2     1  UNL1        0.0409
     18 C          62.7642   81.9607   11.9742 C.3     1  UNL1        0.1630
     19 N          60.8211   86.3210    9.1604 N.pl3   1  UNL1       -0.2876
     20 C          61.1776   85.5367    7.9324 C.3     1  UNL1        0.1243
     21 C          60.4129   85.7478    6.6595 C.3     1  UNL1        0.1636
     22 O          59.2916   86.7432    6.6144 O.3     1  UNL1       -0.3501
     23 C          58.9351   87.5275    7.8423 C.3     1  UNL1        0.1636
     24 C          59.6999   87.3164    9.1154 C.3     1  UNL1        0.1243
     25 C          63.3918   90.8946   11.9097 C.3     1  UNL1        0.1058
     26 N          66.8620   92.3718   14.3645 N.3     1  UNL1       -0.2655
     27 C          65.8430   91.4589   14.9795 C.3     1  UNL1        0.0900
     28 C          64.6862   90.9665   14.1612 C.3     1  UNL1        0.0899
     29 N          64.5485   91.3870   12.7279 N.3     1  UNL1       -0.2661
     30 C          65.5676   92.2999   12.1130 C.3     1  UNL1        0.0899
     31 C          66.7243   92.7922   12.9313 C.3     1  UNL1        0.0900
     32 C          68.9471   92.5856   14.0379 C.3     1  UNL1        0.0253
     33 C          68.0187   92.8642   15.1827 C.3     1  UNL1        0.1145
     34 C          67.0904   93.1427   16.3275 C.3     1  UNL1        0.0253
     35 C          69.1755   93.3565   16.0009 C.2     1  UNL1        0.2321
     36 N          69.5092   94.8188   16.0241 N.am    1  UNL1       -0.3278
     37 O          69.9986   92.3867   16.7958 O.2     1  UNL1       -0.2740
     38 H          68.9690   95.4553   15.5024 H       1  UNL1        0.1450
     39 H          70.2684   95.1420   16.5611 H       1  UNL1        0.1450
@<TRIPOS>BOND
     1    32    33    1
     2    33    34    1
     3    33    35    1
     4    35    36   am
     5    35    37    2
     6    33    26    1
     7    26    27    1
     8    27    28    1
     9    28    29    1
    10    29    25    1
    11    25     1    1
    12     1     2   ar
    13     2     3   ar
    14     3     4   ar
    15     4     5   ar
    16     5    10    1
    17    10    11    2
    18    11    12    1
    19    12    13    2
    20    13    14    1
    21    14    15    2
    22    15    16    1
    23    16    17    2
    24    17    18    1
    25     5     6   ar
    26     6     7   ar
    27     7    19    1
    28    19    20    1
    29    20    21    1
    30    21    22    1
    31    22    23    1
    32    23    24    1
    33     7     8   ar
    34     8     9   ar
    35    29    30    1
    36    30    31    1
    37    31    26    1
    38     9     1   ar
    39     8     3   ar
    40    18    10    1
    41    24    19    1
    42    18    14    1
    43    36    38    1
    44    36    39    1
