@<TRIPOS>MOLECULE
*****
 37 40 0 0 0
SMALL
GASTEIGER

@<TRIPOS>ATOM
      1 N          62.2149   88.6855   10.8750 N.pl3   1  UNL1       -0.2926
      2 C          62.3476   87.2347   11.2322 C.3     1  UNL1        0.0922
      3 C          61.5690   86.2012   10.4734 C.3     1  UNL1        0.0220
      4 C          60.6577   86.6185    9.3574 C.3     1  UNL1        0.0126
      5 C          60.5249   88.0694    9.0003 C.3     1  UNL1        0.0963
      6 C          61.3035   89.1028    9.7591 C.3     1  UNL1        0.1012
      7 C          64.5762   91.7792   11.6514 C.ar    1  UNL1        0.1362
      8 C          63.7976   90.7457   10.8927 C.ar    1  UNL1        0.0686
      9 C          62.9935   89.7190   11.6338 C.ar    1  UNL1        0.1361
     10 N          62.9679   89.7257   13.1335 N.ar    1  UNL1       -0.2083
     11 C          63.7465   90.7592   13.8922 C.ar    1  UNL1        0.2374
     12 N          64.5507   91.7860   13.1511 N.ar    1  UNL1       -0.2083
     13 C          67.7929   95.8861    8.6872 C.3     1  UNL1        0.0897
     14 N          66.9887   94.8594    9.4283 N.3     1  UNL1       -0.2686
     15 C          65.7506   95.2685   10.1696 C.3     1  UNL1        0.0939
     16 C          64.9464   94.2417   10.9106 C.3     1  UNL1        0.1095
     17 N          65.3804   92.8059   10.9104 N.pl3   1  UNL1       -0.2903
     18 C          66.6186   92.3969   10.1691 C.3     1  UNL1        0.1095
     19 C          67.4227   93.4236    9.4280 C.3     1  UNL1        0.0939
     20 C          63.7210   90.7660   15.3920 C.3     1  UNL1        0.4524
     21 F          63.6955   90.7728   16.8917 F       1  UNL1       -0.1632
     22 F          64.8183   91.7885   15.4060 F       1  UNL1       -0.1632
     23 F          62.6236   89.7435   15.3780 F       1  UNL1       -0.1632
     24 C          59.6136   88.4867    7.8844 C.2     1  UNL1        0.2237
     25 O          58.3507   87.7213    7.6213 O.2     1  UNL1       -0.2751
     26 N          59.9652   89.6695    7.0315 N.am    1  UNL1       -0.3040
     27 H          60.7941   90.1719    7.2041 H       1  UNL1        0.1494
     28 C          59.0539   90.0869    5.9155 C.3     1  UNL1        0.0941
     29 C          59.1003   91.4930    5.3954 C.3     1  UNL1        0.0476
     30 C          60.1208   91.8785    4.3659 C.ar    1  UNL1       -0.0204
     31 C          61.4723   91.2278    4.3691 C.ar    1  UNL1       -0.0035
     32 C          62.4928   91.6134    3.3396 C.ar    1  UNL1        0.0100
     33 C          62.1619   92.6496    2.3069 C.ar    1  UNL1        0.0684
     34 C          60.8104   93.3003    2.3036 C.ar    1  UNL1        0.0100
     35 C          59.7899   92.9148    3.3331 C.ar    1  UNL1       -0.0035
     36 C          63.1825   93.0352    1.2774 C.1     1  UNL1        0.1004
     37 N          64.2030   93.4207    0.2479 N.1     1  UNL1       -0.1908
@<TRIPOS>BOND
     1    13    14    1
     2    14    15    1
     3    15    16    1
     4    16    17    1
     5    17     7    1
     6     7     8   ar
     7     8     9   ar
     8     9     1    1
     9     1     2    1
    10     2     3    1
    11     3     4    1
    12     4     5    1
    13     5    24    1
    14    24    25    2
    15    24    26   am
    16    26    28    1
    17    28    29    1
    18    29    30    1
    19    30    31   ar
    20    31    32   ar
    21    32    33   ar
    22    33    36    1
    23    36    37    3
    24    33    34   ar
    25    34    35   ar
    26     5     6    1
    27     9    10   ar
    28    10    11   ar
    29    11    20    1
    30    20    21    1
    31    20    22    1
    32    20    23    1
    33    11    12   ar
    34    17    18    1
    35    18    19    1
    36    19    14    1
    37    12     7   ar
    38     6     1    1
    39    35    30   ar
    40    26    27    1
@<TRIPOS>MOLECULE
*****
 37 40 0 0 0
SMALL
GASTEIGER

@<TRIPOS>ATOM
      1 N          62.7615   89.6560   11.1302 N.pl3   1  UNL1       -0.2926
      2 C          61.7270   90.0376   10.1134 C.3     1  UNL1        0.0922
      3 C          60.8455   88.9851    9.5088 C.3     1  UNL1        0.0220
      4 C          60.9987   87.5510    9.9212 C.3     1  UNL1        0.0126
      5 C          62.0333   87.1695   10.9381 C.3     1  UNL1        0.0963
      6 C          62.9147   88.2220   11.5426 C.3     1  UNL1        0.1012
      7 C          65.1869   92.7799   11.4602 C.ar    1  UNL1        0.1362
      8 C          64.3055   91.7275   10.8557 C.ar    1  UNL1        0.0686
      9 C          63.6430   90.7085   11.7348 C.ar    1  UNL1        0.1361
     10 N          63.8619   90.7420   13.2183 N.ar    1  UNL1       -0.2083
     11 C          64.7433   91.7944   13.8228 C.ar    1  UNL1        0.2374
     12 N          65.4058   92.8134   12.9437 N.ar    1  UNL1       -0.2083
     13 C          67.8370   96.8558    7.9439 C.3     1  UNL1        0.0897
     14 N          67.1745   95.8368    8.8229 N.3     1  UNL1       -0.2686
     15 C          67.6656   94.4195    8.8299 C.3     1  UNL1        0.0939
     16 C          67.0030   93.4005    9.7090 C.3     1  UNL1        0.1095
     17 N          65.8495   93.7989   10.5811 N.pl3   1  UNL1       -0.2903
     18 C          65.3584   95.2162   10.5741 C.3     1  UNL1        0.1095
     19 C          66.0209   96.2351    9.6950 C.3     1  UNL1        0.0939
     20 C          64.9622   91.8280   15.3064 C.3     1  UNL1        0.4524
     21 F          65.1811   91.8615   16.7899 F       1  UNL1       -0.1632
     22 F          65.9162   92.9733   15.1397 F       1  UNL1       -0.1632
     23 F          64.0082   90.6826   15.4731 F       1  UNL1       -0.1632
     24 C          62.1865   85.7354   11.3505 C.2     1  UNL1        0.2237
     25 O          61.3397   85.1785   12.4562 O.2     1  UNL1       -0.2751
     26 N          63.1866   84.8584   10.6571 N.am    1  UNL1       -0.3040
     27 H          63.7424   85.2240    9.9314 H       1  UNL1        0.1494
     28 C          63.3398   83.4243   11.0695 C.3     1  UNL1        0.0941
     29 C          64.0791   83.0809   12.3286 C.3     1  UNL1        0.0476
     30 C          63.7835   83.8231   13.5982 C.ar    1  UNL1       -0.0204
     31 C          62.7108   83.3293   14.5231 C.ar    1  UNL1       -0.0035
     32 C          62.4151   84.0715   15.7927 C.ar    1  UNL1        0.0100
     33 C          63.1921   85.3074   16.1373 C.ar    1  UNL1        0.0684
     34 C          64.2648   85.8011   15.2124 C.ar    1  UNL1        0.0100
     35 C          64.5605   85.0589   13.9428 C.ar    1  UNL1       -0.0035
     36 C          62.8965   86.0495   17.4069 C.1     1  UNL1        0.1004
     37 N          62.6008   86.7917   18.6764 N.1     1  UNL1       -0.1908
@<TRIPOS>BOND
     1    13    14    1
     2    14    15    1
     3    15    16    1
     4    16    17    1
     5    17     7    1
     6     7     8   ar
     7     8     9   ar
     8     9     1    1
     9     1     2    1
    10     2     3    1
    11     3     4    1
    12     4     5    1
    13     5    24    1
    14    24    25    2
    15    24    26   am
    16    26    28    1
    17    28    29    1
    18    29    30    1
    19    30    31   ar
    20    31    32   ar
    21    32    33   ar
    22    33    36    1
    23    36    37    3
    24    33    34   ar
    25    34    35   ar
    26     5     6    1
    27     9    10   ar
    28    10    11   ar
    29    11    20    1
    30    20    21    1
    31    20    22    1
    32    20    23    1
    33    11    12   ar
    34    17    18    1
    35    18    19    1
    36    19    14    1
    37    12     7   ar
    38     6     1    1
    39    35    30   ar
    40    26    27    1
@<TRIPOS>MOLECULE
*****
 37 40 0 0 0
SMALL
GASTEIGER

@<TRIPOS>ATOM
      1 N          64.9129   90.4817   15.1323 N.pl3   1  UNL1       -0.2926
      2 C          63.7671   90.8008   16.0461 C.3     1  UNL1        0.0922
      3 C          62.8047   89.7224   16.4472 C.3     1  UNL1        0.0220
      4 C          62.9883   88.3248   15.9343 C.3     1  UNL1        0.0126
      5 C          64.1342   88.0056   15.0204 C.3     1  UNL1        0.0963
      6 C          65.0965   89.0841   14.6194 C.3     1  UNL1        0.1012
      7 C          66.6976   93.3107   12.9965 C.ar    1  UNL1        0.1362
      8 C          65.7353   92.2323   13.3975 C.ar    1  UNL1        0.0686
      9 C          65.8753   91.5602   14.7312 C.ar    1  UNL1        0.1361
     10 N          66.9776   91.9666   15.6638 N.ar    1  UNL1       -0.2083
     11 C          67.9399   93.0450   15.2628 C.ar    1  UNL1        0.2374
     12 N          67.7999   93.7171   13.9291 N.ar    1  UNL1       -0.2083
     13 C          66.1378   95.9990    7.6617 C.3     1  UNL1        0.0897
     14 N          66.2777   95.3269    8.9954 N.3     1  UNL1       -0.2686
     15 C          66.8650   93.9495    9.0832 C.3     1  UNL1        0.0939
     16 C          67.0049   93.2774   10.4169 C.3     1  UNL1        0.1095
     17 N          66.5577   93.9828   11.6628 N.pl3   1  UNL1       -0.2903
     18 C          65.9704   95.3602   11.5750 C.3     1  UNL1        0.1095
     19 C          65.8304   96.0323   10.2413 C.3     1  UNL1        0.0939
     20 C          69.0422   93.4515   16.1954 C.3     1  UNL1        0.4524
     21 F          70.1445   93.8579   17.1280 F       1  UNL1       -0.1632
     22 F          68.7070   94.8948   15.9625 F       1  UNL1       -0.1632
     23 F          69.3774   92.0081   16.4283 F       1  UNL1       -0.1632
     24 C          64.3177   86.6080   14.5076 C.2     1  UNL1        0.2237
     25 O          65.5032   85.7989   14.9432 O.2     1  UNL1       -0.2751
     26 N          63.3156   86.0196   13.5590 N.am    1  UNL1       -0.3040
     27 H          62.5375   86.5506   13.2731 H       1  UNL1        0.1494
     28 C          63.4992   84.6220   13.0462 C.3     1  UNL1        0.0941
     29 C          63.4141   84.3460   11.5743 C.3     1  UNL1        0.0476
     30 C          62.5555   85.2088   10.6978 C.ar    1  UNL1       -0.0204
     31 C          61.4712   86.0495   11.3040 C.ar    1  UNL1       -0.0035
     32 C          60.6126   86.9123   10.4275 C.ar    1  UNL1        0.0100
     33 C          60.8382   86.9345    8.9448 C.ar    1  UNL1        0.0684
     34 C          61.9225   86.0939    8.3385 C.ar    1  UNL1        0.0100
     35 C          62.7811   85.2310    9.2150 C.ar    1  UNL1       -0.0035
     36 C          59.9796   87.7974    8.0683 C.1     1  UNL1        0.1004
     37 N          59.1210   88.6602    7.1918 N.1     1  UNL1       -0.1908
@<TRIPOS>BOND
     1    13    14    1
     2    14    15    1
     3    15    16    1
     4    16    17    1
     5    17     7    1
     6     7     8   ar
     7     8     9   ar
     8     9     1    1
     9     1     2    1
    10     2     3    1
    11     3     4    1
    12     4     5    1
    13     5    24    1
    14    24    25    2
    15    24    26   am
    16    26    28    1
    17    28    29    1
    18    29    30    1
    19    30    31   ar
    20    31    32   ar
    21    32    33   ar
    22    33    36    1
    23    36    37    3
    24    33    34   ar
    25    34    35   ar
    26     5     6    1
    27     9    10   ar
    28    10    11   ar
    29    11    20    1
    30    20    21    1
    31    20    22    1
    32    20    23    1
    33    11    12   ar
    34    17    18    1
    35    18    19    1
    36    19    14    1
    37    12     7   ar
    38     6     1    1
    39    35    30   ar
    40    26    27    1
@<TRIPOS>MOLECULE
*****
 37 40 0 0 0
SMALL
GASTEIGER

@<TRIPOS>ATOM
      1 N          63.9788   90.8075   14.0252 N.pl3   1  UNL1       -0.2926
      2 C          63.6699   90.2390   15.3785 C.3     1  UNL1        0.0922
      3 C          62.4458   89.3947   15.5757 C.3     1  UNL1        0.0220
      4 C          61.5306   89.1191   14.4197 C.3     1  UNL1        0.0126
      5 C          61.8395   89.6877   13.0664 C.3     1  UNL1        0.0963
      6 C          63.0636   90.5319   12.8692 C.3     1  UNL1        0.1012
      7 C          66.5490   93.3679   12.4163 C.ar    1  UNL1        0.1362
      8 C          65.3249   92.5237   12.6136 C.ar    1  UNL1        0.0686
      9 C          65.2029   91.6518   13.8280 C.ar    1  UNL1        0.1361
     10 N          66.3050   91.6241   14.8452 N.ar    1  UNL1       -0.2083
     11 C          67.5290   92.4683   14.6479 C.ar    1  UNL1        0.2374
     12 N          67.6510   93.3402   13.4335 N.ar    1  UNL1       -0.2083
     13 C          67.0370   96.8556    7.5585 C.3     1  UNL1        0.0897
     14 N          66.9150   95.9837    8.7730 N.3     1  UNL1       -0.2686
     15 C          66.2761   96.5195   10.0198 C.3     1  UNL1        0.0939
     16 C          66.1541   95.6476   11.2343 C.3     1  UNL1        0.1095
     17 N          66.6710   94.2398   11.2019 N.pl3   1  UNL1       -0.2903
     18 C          67.3099   93.7041    9.9550 C.3     1  UNL1        0.1095
     19 C          67.4319   94.5760    8.7406 C.3     1  UNL1        0.0939
     20 C          68.6311   92.4406   15.6651 C.3     1  UNL1        0.4524
     21 F          69.7332   92.4129   16.6823 F       1  UNL1       -0.1632
     22 F          67.6136   92.4054   16.7666 F       1  UNL1       -0.1632
     23 F          69.6487   92.4758   14.5636 F       1  UNL1       -0.1632
     24 C          60.9243   89.4121   11.9103 C.2     1  UNL1        0.2237
     25 O          59.4725   89.1252   12.1549 O.2     1  UNL1       -0.2751
     26 N          61.4610   89.4234   10.5096 N.am    1  UNL1       -0.3040
     27 H          62.4139   89.6118   10.3491 H       1  UNL1        0.1494
     28 C          60.5458   89.1478    9.3536 C.3     1  UNL1        0.0941
     29 C          60.4801   87.7716    8.7605 C.3     1  UNL1        0.0476
     30 C          61.3361   86.6731    9.3178 C.ar    1  UNL1       -0.0204
     31 C          61.2294   86.3011   10.7670 C.ar    1  UNL1       -0.0035
     32 C          62.0854   85.2026   11.3243 C.ar    1  UNL1        0.0100
     33 C          63.0481   84.4762   10.4324 C.ar    1  UNL1        0.0684
     34 C          63.1548   84.8482    8.9833 C.ar    1  UNL1        0.0100
     35 C          62.2988   85.9467    8.4260 C.ar    1  UNL1       -0.0035
     36 C          63.9041   83.3777   10.9898 C.1     1  UNL1        0.1004
     37 N          64.7601   82.2792   11.5471 N.1     1  UNL1       -0.1908
@<TRIPOS>BOND
     1    13    14    1
     2    14    15    1
     3    15    16    1
     4    16    17    1
     5    17     7    1
     6     7     8   ar
     7     8     9   ar
     8     9     1    1
     9     1     2    1
    10     2     3    1
    11     3     4    1
    12     4     5    1
    13     5    24    1
    14    24    25    2
    15    24    26   am
    16    26    28    1
    17    28    29    1
    18    29    30    1
    19    30    31   ar
    20    31    32   ar
    21    32    33   ar
    22    33    36    1
    23    36    37    3
    24    33    34   ar
    25    34    35   ar
    26     5     6    1
    27     9    10   ar
    28    10    11   ar
    29    11    20    1
    30    20    21    1
    31    20    22    1
    32    20    23    1
    33    11    12   ar
    34    17    18    1
    35    18    19    1
    36    19    14    1
    37    12     7   ar
    38     6     1    1
    39    35    30   ar
    40    26    27    1
@<TRIPOS>MOLECULE
*****
 37 40 0 0 0
SMALL
GASTEIGER

@<TRIPOS>ATOM
      1 N          63.7623   87.7575   15.2264 N.pl3   1  UNL1       -0.2926
      2 C          63.3495   87.8084   16.6675 C.3     1  UNL1        0.0922
      3 C          63.0460   86.5385   17.4061 C.3     1  UNL1        0.0220
      4 C          63.1554   85.2178   16.7035 C.3     1  UNL1        0.0126
      5 C          63.5683   85.1669   15.2623 C.3     1  UNL1        0.0963
      6 C          63.8717   86.4367   14.5238 C.3     1  UNL1        0.1012
      7 C          65.4571   91.2071   14.2375 C.ar    1  UNL1        0.1362
      8 C          65.1537   89.9373   14.9760 C.ar    1  UNL1        0.0686
      9 C          64.0657   89.0273   14.4878 C.ar    1  UNL1        0.1361
     10 N          63.2812   89.3872   13.2610 N.ar    1  UNL1       -0.2083
     11 C          63.5846   90.6570   12.5225 C.ar    1  UNL1        0.2374
     12 N          64.6726   91.5669   13.0107 N.ar    1  UNL1       -0.2083
     13 C          69.8090   94.8468   16.1903 C.3     1  UNL1        0.0897
     14 N          68.7210   93.9368   15.7021 N.3     1  UNL1       -0.2686
     15 C          68.7442   92.4805   16.0605 C.3     1  UNL1        0.0939
     16 C          67.6562   91.5706   15.5722 C.3     1  UNL1        0.1095
     17 N          66.5451   92.1170   14.7257 N.pl3   1  UNL1       -0.2903
     18 C          66.5219   93.5733   14.3673 C.3     1  UNL1        0.1095
     19 C          67.6099   94.4833   14.8555 C.3     1  UNL1        0.0939
     20 C          62.8001   91.0170   11.2957 C.3     1  UNL1        0.4524
     21 F          62.0156   91.3769   10.0689 F       1  UNL1       -0.1632
     22 F          64.0234   91.6464   10.6981 F       1  UNL1       -0.1632
     23 F          61.5767   90.3875   11.8933 F       1  UNL1       -0.1632
     24 C          63.6777   83.8462   14.5597 C.2     1  UNL1        0.2237
     25 O          62.8236   82.6923   14.9945 O.2     1  UNL1       -0.2751
     26 N          64.6411   83.6794   13.4221 N.am    1  UNL1       -0.3040
     27 H          65.2017   84.4367   13.1367 H       1  UNL1        0.1494
     28 C          64.7505   82.3586   12.7195 C.3     1  UNL1        0.0941
     29 C          64.2425   82.2115   11.3159 C.3     1  UNL1        0.0476
     30 C          63.4966   83.3391   10.6661 C.ar    1  UNL1       -0.0204
     31 C          63.8044   83.7241    9.2494 C.ar    1  UNL1       -0.0035
     32 C          63.0586   84.8517    8.5997 C.ar    1  UNL1        0.0100
     33 C          62.0049   85.5943    9.3666 C.ar    1  UNL1        0.0684
     34 C          61.6970   85.2093   10.7833 C.ar    1  UNL1        0.0100
     35 C          62.4429   84.0817   11.4330 C.ar    1  UNL1       -0.0035
     36 C          61.2590   86.7219    8.7169 C.1     1  UNL1        0.1004
     37 N          60.5131   87.8495    8.0671 N.1     1  UNL1       -0.1908
@<TRIPOS>BOND
     1    13    14    1
     2    14    15    1
     3    15    16    1
     4    16    17    1
     5    17     7    1
     6     7     8   ar
     7     8     9   ar
     8     9     1    1
     9     1     2    1
    10     2     3    1
    11     3     4    1
    12     4     5    1
    13     5    24    1
    14    24    25    2
    15    24    26   am
    16    26    28    1
    17    28    29    1
    18    29    30    1
    19    30    31   ar
    20    31    32   ar
    21    32    33   ar
    22    33    36    1
    23    36    37    3
    24    33    34   ar
    25    34    35   ar
    26     5     6    1
    27     9    10   ar
    28    10    11   ar
    29    11    20    1
    30    20    21    1
    31    20    22    1
    32    20    23    1
    33    11    12   ar
    34    17    18    1
    35    18    19    1
    36    19    14    1
    37    12     7   ar
    38     6     1    1
    39    35    30   ar
    40    26    27    1
@<TRIPOS>MOLECULE
*****
 37 40 0 0 0
SMALL
GASTEIGER

@<TRIPOS>ATOM
      1 N          64.8269   90.7847   15.3106 N.pl3   1  UNL1       -0.2926
      2 C          63.7312   91.1918   16.2505 C.3     1  UNL1        0.0922
      3 C          62.7206   90.1816   16.7069 C.3     1  UNL1        0.0220
      4 C          62.8059   88.7642   16.2234 C.3     1  UNL1        0.0126
      5 C          63.9017   88.3571   15.2834 C.3     1  UNL1        0.0963
      6 C          64.9122   89.3673   14.8270 C.3     1  UNL1        0.1012
      7 C          66.7036   93.4562   13.0541 C.ar    1  UNL1        0.1362
      8 C          65.6931   92.4460   13.5105 C.ar    1  UNL1        0.0686
      9 C          65.8375   91.7950   14.8541 C.ar    1  UNL1        0.1361
     10 N          66.9924   92.1541   15.7413 N.ar    1  UNL1       -0.2083
     11 C          68.0029   93.1643   15.2849 C.ar    1  UNL1        0.2374
     12 N          67.8584   93.8153   13.9413 N.ar    1  UNL1       -0.2083
     13 C          66.1259   96.0602    7.6795 C.3     1  UNL1        0.0897
     14 N          66.2703   95.4092    9.0232 N.3     1  UNL1       -0.2686
     15 C          66.8140   94.0150    9.1266 C.3     1  UNL1        0.0939
     16 C          66.9585   93.3640   10.4702 C.3     1  UNL1        0.1095
     17 N          66.5591   94.1072   11.7104 N.pl3   1  UNL1       -0.2903
     18 C          66.0154   95.5013   11.6071 C.3     1  UNL1        0.1095
     19 C          65.8710   96.1523   10.2634 C.3     1  UNL1        0.0939
     20 C          69.1578   93.5236   16.1721 C.3     1  UNL1        0.4524
     21 F          70.3127   93.8829   17.0592 F       1  UNL1       -0.1632
     22 F          68.7931   94.9742   16.0595 F       1  UNL1       -0.1632
     23 F          69.5226   92.0730   16.2847 F       1  UNL1       -0.1632
     24 C          63.9870   86.9398   14.7998 C.2     1  UNL1        0.2237
     25 O          63.7661   86.6276   13.3495 O.2     1  UNL1       -0.2751
     26 N          64.2932   85.8346   15.7668 N.am    1  UNL1       -0.3040
     27 H          64.4382   86.0395   16.7187 H       1  UNL1        0.1494
     28 C          64.3785   84.4172   15.2832 C.3     1  UNL1        0.0941
     29 C          63.1242   83.6383   15.0185 C.3     1  UNL1        0.0476
     30 C          63.0565   82.7002   13.8500 C.ar    1  UNL1       -0.0204
     31 C          62.5862   81.2896   14.0471 C.ar    1  UNL1       -0.0035
     32 C          62.5185   80.3514   12.8786 C.ar    1  UNL1        0.0100
     33 C          62.9210   80.8240   11.5131 C.ar    1  UNL1        0.0684
     34 C          63.3913   82.2346   11.3160 C.ar    1  UNL1        0.0100
     35 C          63.4590   83.1727   12.4845 C.ar    1  UNL1       -0.0035
     36 C          62.8533   79.8858   10.3446 C.1     1  UNL1        0.1004
     37 N          62.7855   78.9477    9.1761 N.1     1  UNL1       -0.1908
@<TRIPOS>BOND
     1    13    14    1
     2    14    15    1
     3    15    16    1
     4    16    17    1
     5    17     7    1
     6     7     8   ar
     7     8     9   ar
     8     9     1    1
     9     1     2    1
    10     2     3    1
    11     3     4    1
    12     4     5    1
    13     5    24    1
    14    24    25    2
    15    24    26   am
    16    26    28    1
    17    28    29    1
    18    29    30    1
    19    30    31   ar
    20    31    32   ar
    21    32    33   ar
    22    33    36    1
    23    36    37    3
    24    33    34   ar
    25    34    35   ar
    26     5     6    1
    27     9    10   ar
    28    10    11   ar
    29    11    20    1
    30    20    21    1
    31    20    22    1
    32    20    23    1
    33    11    12   ar
    34    17    18    1
    35    18    19    1
    36    19    14    1
    37    12     7   ar
    38     6     1    1
    39    35    30   ar
    40    26    27    1
@<TRIPOS>MOLECULE
*****
 37 40 0 0 0
SMALL
GASTEIGER

@<TRIPOS>ATOM
      1 N          63.4014   89.6239   14.2943 N.pl3   1  UNL1       -0.2926
      2 C          63.4109   90.6033   15.4303 C.3     1  UNL1        0.0922
      3 C          63.4279   90.1091   16.8465 C.3     1  UNL1        0.0220
      4 C          63.4354   88.6355   17.1266 C.3     1  UNL1        0.0126
      5 C          63.4259   87.6561   15.9905 C.3     1  UNL1        0.0963
      6 C          63.4089   88.1503   14.5744 C.3     1  UNL1        0.1012
      7 C          64.2853   91.7226   11.0440 C.ar    1  UNL1        0.1362
      8 C          64.3023   91.2284   12.4602 C.ar    1  UNL1        0.0686
      9 C          63.3844   90.1181   12.8781 C.ar    1  UNL1        0.1361
     10 N          62.4496   89.5019   11.8799 N.ar    1  UNL1       -0.2083
     11 C          62.4327   89.9961   10.4638 C.ar    1  UNL1        0.2374
     12 N          63.3505   91.1064   10.0459 N.ar    1  UNL1       -0.2083
     13 C          67.9568   96.1640    9.3724 C.3     1  UNL1        0.0897
     14 N          67.0389   95.0537    9.7903 N.3     1  UNL1       -0.2686
     15 C          65.6763   95.3705   10.3313 C.3     1  UNL1        0.0939
     16 C          64.7584   94.2602   10.7492 C.3     1  UNL1        0.1095
     17 N          65.2032   92.8330   10.6261 N.pl3   1  UNL1       -0.2903
     18 C          66.5658   92.5161   10.0851 C.3     1  UNL1        0.1095
     19 C          67.4837   93.6264    9.6672 C.3     1  UNL1        0.0939
     20 C          61.4978   89.3799    9.4655 C.3     1  UNL1        0.4524
     21 F          60.5630   88.7638    8.4673 F       1  UNL1       -0.1632
     22 F          62.4358   88.2208    9.3026 F       1  UNL1       -0.1632
     23 F          60.5598   90.5391    9.6284 F       1  UNL1       -0.1632
     24 C          63.4334   86.1824   16.2705 C.2     1  UNL1        0.2237
     25 O          62.6417   85.6335   17.4202 O.2     1  UNL1       -0.2751
     26 N          64.2326   85.2578   15.4008 N.am    1  UNL1       -0.3040
     27 H          64.7522   85.6181   14.6462 H       1  UNL1        0.1494
     28 C          64.2401   83.7842   15.6809 C.3     1  UNL1        0.0941
     29 C          63.7955   82.8175   14.6236 C.3     1  UNL1        0.0476
     30 C          63.6156   83.2835   13.2092 C.ar    1  UNL1       -0.0204
     31 C          62.6260   84.3664   12.8964 C.ar    1  UNL1       -0.0035
     32 C          62.4461   84.8324   11.4820 C.ar    1  UNL1        0.0100
     33 C          63.2559   84.2154   10.3804 C.ar    1  UNL1        0.0684
     34 C          64.2455   83.1325   10.6932 C.ar    1  UNL1        0.0100
     35 C          64.4254   82.6665   12.1076 C.ar    1  UNL1       -0.0035
     36 C          63.0760   84.6813    8.9660 C.1     1  UNL1        0.1004
     37 N          62.8962   85.1473    7.5516 N.1     1  UNL1       -0.1908
@<TRIPOS>BOND
     1    13    14    1
     2    14    15    1
     3    15    16    1
     4    16    17    1
     5    17     7    1
     6     7     8   ar
     7     8     9   ar
     8     9     1    1
     9     1     2    1
    10     2     3    1
    11     3     4    1
    12     4     5    1
    13     5    24    1
    14    24    25    2
    15    24    26   am
    16    26    28    1
    17    28    29    1
    18    29    30    1
    19    30    31   ar
    20    31    32   ar
    21    32    33   ar
    22    33    36    1
    23    36    37    3
    24    33    34   ar
    25    34    35   ar
    26     5     6    1
    27     9    10   ar
    28    10    11   ar
    29    11    20    1
    30    20    21    1
    31    20    22    1
    32    20    23    1
    33    11    12   ar
    34    17    18    1
    35    18    19    1
    36    19    14    1
    37    12     7   ar
    38     6     1    1
    39    35    30   ar
    40    26    27    1
@<TRIPOS>MOLECULE
*****
 37 40 0 0 0
SMALL
GASTEIGER

@<TRIPOS>ATOM
      1 N          63.3572   89.4386   12.0128 N.pl3   1  UNL1       -0.2926
      2 C          63.5562   88.1266   12.7120 C.3     1  UNL1        0.0922
      3 C          62.7872   86.9169   12.2698 C.3     1  UNL1        0.0220
      4 C          61.8193   87.0193   11.1285 C.3     1  UNL1        0.0126
      5 C          61.6204   88.3314   10.4293 C.3     1  UNL1        0.0963
      6 C          62.3893   89.5410   10.8714 C.3     1  UNL1        0.1012
      7 C          65.4001   92.8385   11.8804 C.ar    1  UNL1        0.1362
      8 C          64.6312   91.6288   11.4383 C.ar    1  UNL1        0.0686
      9 C          64.1261   90.6483   12.4549 C.ar    1  UNL1        0.1361
     10 N          64.3900   90.8775   13.9136 N.ar    1  UNL1       -0.2083
     11 C          65.1589   92.0871   14.3557 C.ar    1  UNL1        0.2374
     12 N          65.6639   93.0676   13.3391 N.ar    1  UNL1       -0.2083
     13 C          67.4203   96.7605    7.8139 C.3     1  UNL1        0.0897
     14 N          66.9153   95.7800    8.8306 N.3     1  UNL1       -0.2686
     15 C          65.9152   96.2154    9.8602 C.3     1  UNL1        0.0939
     16 C          65.4101   95.2349   10.8768 C.3     1  UNL1        0.1095
     17 N          65.9052   93.8190   10.8638 N.pl3   1  UNL1       -0.2903
     18 C          66.9052   93.3836    9.8341 C.3     1  UNL1        0.1095
     19 C          67.4103   94.3642    8.8175 C.3     1  UNL1        0.0939
     20 C          65.4228   92.3163   15.8145 C.3     1  UNL1        0.4524
     21 F          65.6866   92.5454   17.2732 F       1  UNL1       -0.1632
     22 F          64.2120   91.5018   16.1614 F       1  UNL1       -0.1632
     23 F          66.6336   93.1308   15.4675 F       1  UNL1       -0.1632
     24 C          60.6525   88.4339    9.2879 C.2     1  UNL1        0.2237
     25 O          60.0605   87.1908    8.6927 O.2     1  UNL1       -0.2751
     26 N          60.2765   89.7794    8.7418 N.am    1  UNL1       -0.3040
     27 H          60.6651   90.5953    9.1325 H       1  UNL1        0.1494
     28 C          59.3086   89.8819    7.6005 C.3     1  UNL1        0.0941
     29 C          59.7582   89.5647    6.2051 C.3     1  UNL1        0.0476
     30 C          59.9164   90.6663    5.1994 C.ar    1  UNL1       -0.0204
     31 C          61.2568   90.9292    4.5796 C.ar    1  UNL1       -0.0035
     32 C          61.4150   92.0308    3.5739 C.ar    1  UNL1        0.0100
     33 C          60.2329   92.8696    3.1880 C.ar    1  UNL1        0.0684
     34 C          58.8925   92.6067    3.8079 C.ar    1  UNL1        0.0100
     35 C          58.7343   91.5051    4.8136 C.ar    1  UNL1       -0.0035
     36 C          60.3911   93.9712    2.1824 C.1     1  UNL1        0.1004
     37 N          60.5493   95.0728    1.1767 N.1     1  UNL1       -0.1908
@<TRIPOS>BOND
     1    13    14    1
     2    14    15    1
     3    15    16    1
     4    16    17    1
     5    17     7    1
     6     7     8   ar
     7     8     9   ar
     8     9     1    1
     9     1     2    1
    10     2     3    1
    11     3     4    1
    12     4     5    1
    13     5    24    1
    14    24    25    2
    15    24    26   am
    16    26    28    1
    17    28    29    1
    18    29    30    1
    19    30    31   ar
    20    31    32   ar
    21    32    33   ar
    22    33    36    1
    23    36    37    3
    24    33    34   ar
    25    34    35   ar
    26     5     6    1
    27     9    10   ar
    28    10    11   ar
    29    11    20    1
    30    20    21    1
    31    20    22    1
    32    20    23    1
    33    11    12   ar
    34    17    18    1
    35    18    19    1
    36    19    14    1
    37    12     7   ar
    38     6     1    1
    39    35    30   ar
    40    26    27    1
@<TRIPOS>MOLECULE
*****
 37 40 0 0 0
SMALL
GASTEIGER

@<TRIPOS>ATOM
      1 N          62.4668   87.6221   11.5720 N.pl3   1  UNL1       -0.2926
      2 C          63.1282   88.9366   11.8626 C.3     1  UNL1        0.0922
      3 C          62.8119   90.1376   11.0212 C.3     1  UNL1        0.0220
      4 C          61.8342   90.0238    9.8893 C.3     1  UNL1        0.0126
      5 C          61.1728   88.7092    9.5988 C.3     1  UNL1        0.0963
      6 C          61.4891   87.5084   10.4401 C.3     1  UNL1        0.1012
      7 C          63.0429   83.8473   12.6532 C.ar    1  UNL1        0.1362
      8 C          62.7267   85.0482   11.8120 C.ar    1  UNL1        0.0686
      9 C          62.7831   86.4211   12.4134 C.ar    1  UNL1        0.1361
     10 N          63.1557   86.5932   13.8561 N.ar    1  UNL1       -0.2083
     11 C          63.4720   85.3923   14.6974 C.ar    1  UNL1        0.2374
     12 N          63.4156   84.0194   14.0959 N.ar    1  UNL1       -0.2083
     13 C          62.8173   78.3553   10.2475 C.3     1  UNL1        0.0897
     14 N          62.8737   79.7283   10.8489 N.3     1  UNL1       -0.2686
     15 C          62.4341   79.9447   12.2666 C.3     1  UNL1        0.0939
     16 C          62.4905   81.3177   12.8680 C.3     1  UNL1        0.1095
     17 N          62.9865   82.4743   12.0518 N.pl3   1  UNL1       -0.2903
     18 C          63.4262   82.2578   10.6341 C.3     1  UNL1        0.1095
     19 C          63.3697   80.8849   10.0327 C.3     1  UNL1        0.0939
     20 C          63.8447   85.5644   16.1402 C.3     1  UNL1        0.4524
     21 F          64.2174   85.7364   17.5829 F       1  UNL1       -0.1632
     22 F          62.4636   85.1440   16.5470 F       1  UNL1       -0.1632
     23 F          65.2259   85.9848   15.7333 F       1  UNL1       -0.1632
     24 C          60.1950   88.5955    8.4669 C.2     1  UNL1        0.2237
     25 O          59.4044   87.3342    8.2827 O.2     1  UNL1       -0.2751
     26 N          60.0080   89.7432    7.5193 N.am    1  UNL1       -0.3040
     27 H          60.5269   90.5710    7.6403 H       1  UNL1        0.1494
     28 C          59.0303   89.6294    6.3874 C.3     1  UNL1        0.0941
     29 C          58.6965   90.8356    5.5606 C.3     1  UNL1        0.0476
     30 C          59.7159   91.4048    4.6189 C.ar    1  UNL1       -0.0204
     31 C          61.1243   90.8892    4.6372 C.ar    1  UNL1       -0.0035
     32 C          62.1437   91.4584    3.6954 C.ar    1  UNL1        0.0100
     33 C          61.7546   92.5433    2.7354 C.ar    1  UNL1        0.0684
     34 C          60.3462   93.0589    2.7171 C.ar    1  UNL1        0.0100
     35 C          59.3268   92.4897    3.6588 C.ar    1  UNL1       -0.0035
     36 C          62.7740   93.1125    1.7936 C.1     1  UNL1        0.1004
     37 N          63.7934   93.6817    0.8519 N.1     1  UNL1       -0.1908
@<TRIPOS>BOND
     1    13    14    1
     2    14    15    1
     3    15    16    1
     4    16    17    1
     5    17     7    1
     6     7     8   ar
     7     8     9   ar
     8     9     1    1
     9     1     2    1
    10     2     3    1
    11     3     4    1
    12     4     5    1
    13     5    24    1
    14    24    25    2
    15    24    26   am
    16    26    28    1
    17    28    29    1
    18    29    30    1
    19    30    31   ar
    20    31    32   ar
    21    32    33   ar
    22    33    36    1
    23    36    37    3
    24    33    34   ar
    25    34    35   ar
    26     5     6    1
    27     9    10   ar
    28    10    11   ar
    29    11    20    1
    30    20    21    1
    31    20    22    1
    32    20    23    1
    33    11    12   ar
    34    17    18    1
    35    18    19    1
    36    19    14    1
    37    12     7   ar
    38     6     1    1
    39    35    30   ar
    40    26    27    1
