@<TRIPOS>MOLECULE
*****
 32 35 0 0 0
SMALL
GASTEIGER

@<TRIPOS>ATOM
      1 C          65.3561   91.7830   13.6770 C.ar    1  UNL1       -0.0044
      2 C          65.6317   90.7702   14.7484 C.ar    1  UNL1       -0.0014
      3 C          65.0494   89.3917   14.6451 C.ar    1  UNL1        0.0144
      4 C          64.1916   89.0260   13.4702 C.ar    1  UNL1        0.0516
      5 C          63.9159   90.0389   12.3987 C.ar    1  UNL1        0.0144
      6 C          64.4982   91.4174   12.5020 C.ar    1  UNL1       -0.0014
      7 N          63.6093   87.6475   13.3669 N.am    1  UNL1       -0.2681
      8 C          64.2089   86.5192   14.1526 C.2     1  UNL1        0.3077
      9 O          65.3908   86.7694   15.0417 O.2     1  UNL1       -0.2522
     10 N          63.6266   85.1407   14.0492 N.am    1  UNL1       -0.2632
     11 C          63.9422   83.8074   14.6599 C.3     1  UNL1        0.1010
     12 C          62.8032   83.1912   13.9031 C.3     1  UNL1        0.0636
     13 C          62.4876   84.5244   13.2924 C.3     1  UNL1        0.1010
     14 H          62.8336   87.4833   12.7833 H       1  UNL1        0.1564
     15 C          62.2209   81.8127   13.7997 C.ar    1  UNL1       -0.0000
     16 C          60.8374   81.5426   14.3123 C.ar    1  UNL1       -0.0010
     17 C          60.2551   80.1641   14.2089 C.ar    1  UNL1        0.0204
     18 C          61.0564   79.0557   13.5930 C.ar    1  UNL1        0.0989
     19 N          62.4399   79.3258   13.0804 N.ar    1  UNL1       -0.2426
     20 C          63.0222   80.7043   13.1838 C.ar    1  UNL1        0.0947
     21 C          66.6603   93.5792   15.0270 C.3     1  UNL1        0.0262
     22 C          65.9384   93.1615   13.7803 C.3     1  UNL1        0.0945
     23 N          65.7987   94.1223   12.6369 N.am    1  UNL1       -0.2962
     24 C          66.6659   93.9736   11.4221 C.2     1  UNL1        0.2821
     25 O          67.6728   92.8641   11.3506 O.2     1  UNL1       -0.2668
     26 H          65.1379   94.8506   12.6838 H       1  UNL1        0.1501
     27 C          66.5262   94.9344   10.2786 C.ar    1  UNL1        0.2169
     28 N          65.3502   95.8636   10.2191 N.ar    1  UNL1       -0.2212
     29 C          65.2105   96.8243    9.0758 C.ar    1  UNL1        0.1023
     30 C          66.2469   96.8560    7.9918 C.ar    1  UNL1        0.0414
     31 C          67.4230   95.9268    8.0513 C.ar    1  UNL1        0.1023
     32 N          67.5626   94.9661    9.1947 N.ar    1  UNL1       -0.2212
@<TRIPOS>BOND
     1    22    21    1
     2    22    23    1
     3    23    24   am
     4    24    25    2
     5    24    27    1
     6    27    28   ar
     7    28    29   ar
     8    29    30   ar
     9    30    31   ar
    10    31    32   ar
    11    22     1    1
    12     1     2   ar
    13     2     3   ar
    14     3     4   ar
    15     4     7    1
    16     7     8   am
    17     8     9    2
    18     8    10   am
    19    10    11    1
    20    11    12    1
    21    12    15    1
    22    15    16   ar
    23    16    17   ar
    24    17    18   ar
    25    18    19   ar
    26    19    20   ar
    27    12    13    1
    28     4     5   ar
    29     5     6   ar
    30    32    27   ar
    31     6     1   ar
    32    13    10    1
    33    20    15   ar
    34    23    26    1
    35     7    14    1
@<TRIPOS>MOLECULE
*****
 32 35 0 0 0
SMALL
GASTEIGER

@<TRIPOS>ATOM
      1 C          65.3616   91.7642   13.7295 C.ar    1  UNL1       -0.0044
      2 C          64.5020   91.3990   12.5557 C.ar    1  UNL1       -0.0014
      3 C          63.9144   90.0225   12.4558 C.ar    1  UNL1        0.0144
      4 C          64.1863   89.0112   13.5297 C.ar    1  UNL1        0.0516
      5 C          65.0459   89.3763   14.7035 C.ar    1  UNL1        0.0144
      6 C          65.6335   90.7528   14.8034 C.ar    1  UNL1       -0.0014
      7 N          63.5986   87.6347   13.4297 N.am    1  UNL1       -0.2681
      8 C          64.2142   86.4992   14.1924 C.2     1  UNL1        0.3077
      9 O          65.4175   86.7403   15.0550 O.2     1  UNL1       -0.2522
     10 N          63.6266   85.1228   14.0925 N.am    1  UNL1       -0.2632
     11 C          63.9536   83.7842   14.6854 C.3     1  UNL1        0.1010
     12 C          62.7956   83.1761   13.9512 C.3     1  UNL1        0.0636
     13 C          62.4685   84.5146   13.3583 C.3     1  UNL1        0.1010
     14 H          62.8089   87.4765   12.8636 H       1  UNL1        0.1564
     15 C          62.2079   81.7997   13.8513 C.ar    1  UNL1       -0.0000
     16 C          60.7969   81.5524   14.2962 C.ar    1  UNL1       -0.0010
     17 C          60.2093   80.1760   14.1963 C.ar    1  UNL1        0.0204
     18 C          61.0326   79.0467   13.6515 C.ar    1  UNL1        0.0989
     19 N          62.4436   79.2939   13.2066 N.ar    1  UNL1       -0.2426
     20 C          63.0313   80.6704   13.3065 C.ar    1  UNL1        0.0947
     21 C          66.6757   93.5575   15.0737 C.3     1  UNL1        0.0262
     22 C          65.9492   93.1406   13.8294 C.3     1  UNL1        0.0945
     23 N          65.8103   94.1003   12.6849 N.am    1  UNL1       -0.2962
     24 C          66.6620   93.9364   11.4611 C.2     1  UNL1        0.2821
     25 O          67.6526   92.8129   11.3817 O.2     1  UNL1       -0.2668
     26 H          65.1601   94.8377   12.7370 H       1  UNL1        0.1501
     27 C          66.5230   94.8961   10.3166 C.ar    1  UNL1        0.2169
     28 N          67.5019   94.8556    9.1808 N.ar    1  UNL1       -0.2212
     29 C          67.3630   95.8152    8.0364 C.ar    1  UNL1        0.1023
     30 C          66.2451   96.8154    8.0278 C.ar    1  UNL1        0.0414
     31 C          65.2662   96.8559    9.1636 C.ar    1  UNL1        0.1023
     32 N          65.4052   95.8963   10.3080 N.ar    1  UNL1       -0.2212
@<TRIPOS>BOND
     1    22    21    1
     2    22    23    1
     3    23    24   am
     4    24    25    2
     5    24    27    1
     6    27    28   ar
     7    28    29   ar
     8    29    30   ar
     9    30    31   ar
    10    31    32   ar
    11    22     1    1
    12     1     2   ar
    13     2     3   ar
    14     3     4   ar
    15     4     7    1
    16     7     8   am
    17     8     9    2
    18     8    10   am
    19    10    11    1
    20    11    12    1
    21    12    15    1
    22    15    16   ar
    23    16    17   ar
    24    17    18   ar
    25    18    19   ar
    26    19    20   ar
    27    12    13    1
    28     4     5   ar
    29     5     6   ar
    30    32    27   ar
    31     6     1   ar
    32    13    10    1
    33    20    15   ar
    34    23    26    1
    35     7    14    1
@<TRIPOS>MOLECULE
*****
 32 35 0 0 0
SMALL
GASTEIGER

@<TRIPOS>ATOM
      1 C          59.8177   91.4878    4.5981 C.ar    1  UNL1       -0.0044
      2 C          59.1922   92.4334    3.6160 C.ar    1  UNL1       -0.0014
      3 C          60.0105   92.9978    2.4927 C.ar    1  UNL1        0.0144
      4 C          61.4543   92.6164    2.3513 C.ar    1  UNL1        0.0516
      5 C          62.0799   91.6707    3.3334 C.ar    1  UNL1        0.0144
      6 C          61.2616   91.1064    4.4568 C.ar    1  UNL1       -0.0014
      7 N          62.2726   93.1807    1.2280 N.am    1  UNL1       -0.2681
      8 C          61.8660   92.9325   -0.1943 C.2     1  UNL1        0.3077
      9 O          60.6412   92.1199   -0.4933 O.2     1  UNL1       -0.2522
     10 N          62.6843   93.4968   -1.3177 N.am    1  UNL1       -0.2632
     11 C          62.5969   93.4627   -2.8148 C.3     1  UNL1        0.1010
     12 C          63.8416   94.2949   -2.9064 C.3     1  UNL1        0.0636
     13 C          63.9290   94.3290   -1.4093 C.3     1  UNL1        0.1010
     14 H          63.0765   93.7141    1.4242 H       1  UNL1        0.1564
     15 C          64.6599   94.8592   -4.0297 C.ar    1  UNL1       -0.0000
     16 C          65.1031   96.2916   -3.9888 C.ar    1  UNL1       -0.0010
     17 C          65.9214   96.8559   -5.1121 C.ar    1  UNL1        0.0204
     18 C          66.2965   95.9878   -6.2764 C.ar    1  UNL1        0.0989
     19 N          65.8533   94.5554   -6.3174 N.ar    1  UNL1       -0.2426
     20 C          65.0350   93.9911   -5.1940 C.ar    1  UNL1        0.0947
     21 C          57.5115   90.8003    5.5771 C.3     1  UNL1        0.0262
     22 C          58.9994   90.9235    5.7214 C.3     1  UNL1        0.0945
     23 N          59.6691   90.4824    6.9891 N.am    1  UNL1       -0.2962
     24 C          59.6735   89.0314    7.3694 C.2     1  UNL1        0.2821
     25 O          59.0083   88.0215    6.4820 O.2     1  UNL1       -0.2668
     26 H          60.1057   91.1452    7.5716 H       1  UNL1        0.1501
     27 C          60.3432   88.5903    8.6371 C.ar    1  UNL1        0.2169
     28 N          60.1519   87.1895    9.1382 N.ar    1  UNL1       -0.2212
     29 C          60.8215   86.7485   10.4059 C.ar    1  UNL1        0.1023
     30 C          61.6826   87.7082   11.1724 C.ar    1  UNL1        0.0414
     31 C          61.8740   89.1090   10.6712 C.ar    1  UNL1        0.1023
     32 N          61.2043   89.5500    9.4036 N.ar    1  UNL1       -0.2212
@<TRIPOS>BOND
     1    22    21    1
     2    22    23    1
     3    23    24   am
     4    24    25    2
     5    24    27    1
     6    27    28   ar
     7    28    29   ar
     8    29    30   ar
     9    30    31   ar
    10    31    32   ar
    11    22     1    1
    12     1     2   ar
    13     2     3   ar
    14     3     4   ar
    15     4     7    1
    16     7     8   am
    17     8     9    2
    18     8    10   am
    19    10    11    1
    20    11    12    1
    21    12    15    1
    22    15    16   ar
    23    16    17   ar
    24    17    18   ar
    25    18    19   ar
    26    19    20   ar
    27    12    13    1
    28     4     5   ar
    29     5     6   ar
    30    32    27   ar
    31     6     1   ar
    32    13    10    1
    33    20    15   ar
    34    23    26    1
    35     7    14    1
@<TRIPOS>MOLECULE
*****
 32 35 0 0 0
SMALL
GASTEIGER

@<TRIPOS>ATOM
      1 C          59.5703   90.0968    6.6047 C.ar    1  UNL1       -0.0044
      2 C          60.7605   90.4798    5.7759 C.ar    1  UNL1       -0.0014
      3 C          60.5703   91.2386    4.4961 C.ar    1  UNL1        0.0144
      4 C          59.1901   91.6144    4.0449 C.ar    1  UNL1        0.0516
      5 C          57.9998   91.2314    4.8737 C.ar    1  UNL1        0.0144
      6 C          58.1900   90.4726    6.1536 C.ar    1  UNL1       -0.0014
      7 N          58.9999   92.3732    2.7650 N.am    1  UNL1       -0.2681
      8 C          60.1892   92.7470    1.9310 C.2     1  UNL1        0.3077
      9 O          61.5687   92.3620    2.3768 O.2     1  UNL1       -0.2522
     10 N          59.9991   93.5058    0.6511 N.am    1  UNL1       -0.2632
     11 C          60.9134   94.0378   -0.4125 C.3     1  UNL1        0.1010
     12 C          59.7302   94.5789   -1.1589 C.3     1  UNL1        0.0636
     13 C          58.8159   94.0469   -0.0954 C.3     1  UNL1        0.1010
     14 H          58.0945   92.6259    2.4725 H       1  UNL1        0.1564
     15 C          59.5401   95.3377   -2.4388 C.ar    1  UNL1       -0.0000
     16 C          58.1899   95.8880   -2.7909 C.ar    1  UNL1       -0.0010
     17 C          57.9997   96.6468   -4.0708 C.ar    1  UNL1        0.0204
     18 C          59.1598   96.8552   -4.9985 C.ar    1  UNL1        0.0989
     19 N          60.5100   96.3049   -4.6464 N.ar    1  UNL1       -0.2426
     20 C          60.7001   95.5461   -3.3665 C.ar    1  UNL1        0.0947
     21 C          59.1010   88.0037    8.0704 C.3     1  UNL1        0.0262
     22 C          59.7605   89.3381    7.8846 C.3     1  UNL1        0.0945
     23 N          60.6101   89.9137    8.9786 N.am    1  UNL1       -0.2962
     24 C          61.6174   89.0505    9.6788 C.2     1  UNL1        0.2821
     25 O          61.7750   87.6118    9.2851 O.2     1  UNL1       -0.2668
     26 H          60.5066   90.8580    9.2370 H       1  UNL1        0.1501
     27 C          62.4670   89.6262   10.7729 C.ar    1  UNL1        0.2169
     28 N          63.1242   90.9618   10.5881 N.ar    1  UNL1       -0.2212
     29 C          63.9738   91.5373   11.6821 C.ar    1  UNL1        0.1023
     30 C          64.1662   90.7773   12.9609 C.ar    1  UNL1        0.0414
     31 C          63.5089   89.4417   13.1457 C.ar    1  UNL1        0.1023
     32 N          62.6593   88.8662   12.0517 N.ar    1  UNL1       -0.2212
@<TRIPOS>BOND
     1    22    21    1
     2    22    23    1
     3    23    24   am
     4    24    25    2
     5    24    27    1
     6    27    28   ar
     7    28    29   ar
     8    29    30   ar
     9    30    31   ar
    10    31    32   ar
    11    22     1    1
    12     1     2   ar
    13     2     3   ar
    14     3     4   ar
    15     4     7    1
    16     7     8   am
    17     8     9    2
    18     8    10   am
    19    10    11    1
    20    11    12    1
    21    12    15    1
    22    15    16   ar
    23    16    17   ar
    24    17    18   ar
    25    18    19   ar
    26    19    20   ar
    27    12    13    1
    28     4     5   ar
    29     5     6   ar
    30    32    27   ar
    31     6     1   ar
    32    13    10    1
    33    20    15   ar
    34    23    26    1
    35     7    14    1
@<TRIPOS>MOLECULE
*****
 32 35 0 0 0
SMALL
GASTEIGER

@<TRIPOS>ATOM
      1 C          60.0238   88.3802    9.1947 C.ar    1  UNL1       -0.0044
      2 C          60.4922   89.8008    9.0834 C.ar    1  UNL1       -0.0014
      3 C          60.2594   90.5702    7.8170 C.ar    1  UNL1        0.0144
      4 C          59.5581   89.9190    6.6619 C.ar    1  UNL1        0.0516
      5 C          59.0896   88.4984    6.7733 C.ar    1  UNL1        0.0144
      6 C          59.3225   87.7289    8.0397 C.ar    1  UNL1       -0.0014
      7 N          59.3252   90.6885    5.3955 N.am    1  UNL1       -0.2681
      8 C          60.4889   91.2548    4.6373 C.2     1  UNL1        0.3077
      9 O          61.8855   91.0517    5.1454 O.2     1  UNL1       -0.2522
     10 N          60.2560   92.0242    3.3709 N.am    1  UNL1       -0.2632
     11 C          61.1366   92.7166    2.3733 C.3     1  UNL1        0.1010
     12 C          59.9267   93.1123    1.5799 C.3     1  UNL1        0.0636
     13 C          59.0460   92.4200    2.5775 C.3     1  UNL1        0.1010
     14 H          58.4085   90.8217    5.0620 H       1  UNL1        0.1564
     15 C          59.6938   93.8817    0.3135 C.ar    1  UNL1       -0.0000
     16 C          59.6402   93.1627   -1.0018 C.ar    1  UNL1       -0.0010
     17 C          59.4073   93.9322   -2.2682 C.ar    1  UNL1        0.0204
     18 C          59.2280   95.4206   -2.2192 C.ar    1  UNL1        0.0989
     19 N          59.2816   96.1396   -0.9039 N.ar    1  UNL1       -0.2426
     20 C          59.5145   95.3701    0.3625 C.ar    1  UNL1        0.0947
     21 C          59.8492   88.1967   11.7804 C.3     1  UNL1        0.0262
     22 C          60.2567   87.6108   10.4611 C.3     1  UNL1        0.0945
     23 N          60.8971   86.2553   10.4082 N.am    1  UNL1       -0.2962
     24 C          62.1259   85.9741   11.2212 C.2     1  UNL1        0.2821
     25 O          62.7144   87.0483   12.0871 O.2     1  UNL1       -0.2668
     26 H          60.5109   85.5503    9.8398 H       1  UNL1        0.1501
     27 C          62.7663   84.6187   11.1682 C.ar    1  UNL1        0.2169
     28 N          63.5276   84.1961    9.9469 N.ar    1  UNL1       -0.2212
     29 C          64.1680   82.8407    9.8940 C.ar    1  UNL1        0.1023
     30 C          64.0470   81.9079   11.0624 C.ar    1  UNL1        0.0414
     31 C          63.2857   82.3305   12.2838 C.ar    1  UNL1        0.1023
     32 N          62.6454   83.6859   12.3367 N.ar    1  UNL1       -0.2212
@<TRIPOS>BOND
     1    22    21    1
     2    22    23    1
     3    23    24   am
     4    24    25    2
     5    24    27    1
     6    27    28   ar
     7    28    29   ar
     8    29    30   ar
     9    30    31   ar
    10    31    32   ar
    11    22     1    1
    12     1     2   ar
    13     2     3   ar
    14     3     4   ar
    15     4     7    1
    16     7     8   am
    17     8     9    2
    18     8    10   am
    19    10    11    1
    20    11    12    1
    21    12    15    1
    22    15    16   ar
    23    16    17   ar
    24    17    18   ar
    25    18    19   ar
    26    19    20   ar
    27    12    13    1
    28     4     5   ar
    29     5     6   ar
    30    32    27   ar
    31     6     1   ar
    32    13    10    1
    33    20    15   ar
    34    23    26    1
    35     7    14    1
@<TRIPOS>MOLECULE
*****
 32 35 0 0 0
SMALL
GASTEIGER

@<TRIPOS>ATOM
      1 C          58.9753   90.0016    6.2482 C.ar    1  UNL1       -0.0044
      2 C          60.0094   90.5283    7.1987 C.ar    1  UNL1       -0.0014
      3 C          60.5307   89.6534    8.3000 C.ar    1  UNL1        0.0144
      4 C          60.0179   88.2519    8.4508 C.ar    1  UNL1        0.0516
      5 C          58.9839   87.7252    7.5004 C.ar    1  UNL1        0.0144
      6 C          58.4626   88.6000    6.3991 C.ar    1  UNL1       -0.0014
      7 N          60.5392   87.3770    9.5521 N.am    1  UNL1       -0.2681
      8 C          61.4626   86.2390    9.2325 C.2     1  UNL1        0.3077
      9 O          61.8646   85.9758    7.8116 O.2     1  UNL1       -0.2522
     10 N          61.9839   85.3641   10.3338 N.am    1  UNL1       -0.2632
     11 C          62.8936   84.1734   10.4020 C.3     1  UNL1        0.1010
     12 C          62.7211   84.1269   11.8913 C.3     1  UNL1        0.0636
     13 C          61.8114   85.3176   11.8232 C.3     1  UNL1        0.1010
     14 H          60.2754   87.5498   10.4847 H       1  UNL1        0.1564
     15 C          63.2424   83.2520   12.9926 C.ar    1  UNL1       -0.0000
     16 C          63.1841   81.7594   12.8560 C.ar    1  UNL1       -0.0010
     17 C          63.7054   80.8846   13.9573 C.ar    1  UNL1        0.0204
     18 C          64.2850   81.5023   15.1952 C.ar    1  UNL1        0.0989
     19 N          64.3433   82.9949   15.3317 N.ar    1  UNL1       -0.2426
     20 C          63.8220   83.8698   14.2304 C.ar    1  UNL1        0.0947
     21 C          57.0339   91.3582    5.1803 C.3     1  UNL1        0.0262
     22 C          58.4540   90.8765    5.1469 C.3     1  UNL1        0.0945
     23 N          59.3530   91.2697    4.0122 N.am    1  UNL1       -0.2962
     24 C          59.7458   92.7057    3.8296 C.2     1  UNL1        0.2821
     25 O          59.2399   93.7486    4.7816 O.2     1  UNL1       -0.2668
     26 H          59.6851   90.5852    3.3874 H       1  UNL1        0.1501
     27 C          60.6448   93.0989    2.6949 C.ar    1  UNL1        0.2169
     28 N          62.0194   92.5083    2.5878 N.ar    1  UNL1       -0.2212
     29 C          62.9182   92.9015    1.4531 C.ar    1  UNL1        0.1023
     30 C          62.4424   93.8853    0.4257 C.ar    1  UNL1        0.0414
     31 C          61.0678   94.4759    0.5328 C.ar    1  UNL1        0.1023
     32 N          60.1690   94.0827    1.6675 N.ar    1  UNL1       -0.2212
@<TRIPOS>BOND
     1    22    21    1
     2    22    23    1
     3    23    24   am
     4    24    25    2
     5    24    27    1
     6    27    28   ar
     7    28    29   ar
     8    29    30   ar
     9    30    31   ar
    10    31    32   ar
    11    22     1    1
    12     1     2   ar
    13     2     3   ar
    14     3     4   ar
    15     4     7    1
    16     7     8   am
    17     8     9    2
    18     8    10   am
    19    10    11    1
    20    11    12    1
    21    12    15    1
    22    15    16   ar
    23    16    17   ar
    24    17    18   ar
    25    18    19   ar
    26    19    20   ar
    27    12    13    1
    28     4     5   ar
    29     5     6   ar
    30    32    27   ar
    31     6     1   ar
    32    13    10    1
    33    20    15   ar
    34    23    26    1
    35     7    14    1
