@<TRIPOS>MOLECULE
*****
 27 29 0 0 0
SMALL
GASTEIGER

@<TRIPOS>ATOM
      1 C          64.5300   88.6479   14.5081 C.3     1  UNL1        0.0518
      2 C          63.8033   87.7859   13.5186 C.ar    1  UNL1        0.0568
      3 N          63.1560   88.4067   12.3163 N.ar    1  UNL1       -0.2456
      4 C          62.4294   87.5448   11.3268 C.ar    1  UNL1        0.1319
      5 C          62.3500   86.0621   11.5396 C.ar    1  UNL1        0.0196
      6 C          62.9973   85.4413   12.7420 C.ar    1  UNL1       -0.0015
      7 C          63.7240   86.3033   13.7315 C.ar    1  UNL1        0.0068
      8 C          61.5710   85.4715   10.4019 C.3     1  UNL1        0.1222
      9 N          61.1690   86.5892    9.4859 N.am    1  UNL1       -0.2681
     10 C          61.6994   87.8706   10.0575 C.2     1  UNL1        0.2668
     11 O          61.5298   89.2376    9.4640 O.2     1  UNL1       -0.2683
     12 C          62.9180   83.9585   12.9549 C.ar    1  UNL1        0.0102
     13 C          62.0513   83.4029   14.0458 C.ar    1  UNL1        0.0017
     14 C          61.9719   81.9202   14.2588 C.ar    1  UNL1        0.0114
     15 C          62.7593   80.9933   13.3808 C.ar    1  UNL1        0.0585
     16 CL         62.6799   79.5106   13.5938 Cl      1  UNL1       -0.0822
     17 C          63.6259   81.5489   12.2899 C.ar    1  UNL1        0.0228
     18 C          63.7053   83.0316   12.0769 C.ar    1  UNL1        0.0585
     19 CL         64.5720   83.5873   10.9860 Cl      1  UNL1       -0.0822
     20 C          64.3713   85.6824   14.9339 C.3     1  UNL1        0.0934
     21 N          65.7832   85.1828   14.8514 N.3     1  UNL1       -0.3174
     22 H          65.8275   84.3934   14.2071 H       1  UNL1        0.1192
     23 H          66.0929   84.8845   15.7764 H       1  UNL1        0.1192
     24 C          60.3757   86.4500    8.2205 C.3     1  UNL1        0.1257
     25 C          58.9536   86.9242    8.1708 C.3     1  UNL1        0.1586
     26 O          58.5652   88.0347    7.2401 O.3     1  UNL1       -0.3802
     27 H          59.0006   88.8560    7.5173 H       1  UNL1        0.2105
@<TRIPOS>BOND
     1     1     2    1
     2     2     3   ar
     3     3     4   ar
     4     4     5   ar
     5     5     6   ar
     6     6    12    1
     7    12    13   ar
     8    13    14   ar
     9    14    15   ar
    10    15    16    1
    11    15    17   ar
    12    17    18   ar
    13    18    19    1
    14     6     7   ar
    15     7    20    1
    16    20    21    1
    17     5     8    1
    18     8     9    1
    19     9    24    1
    20    24    25    1
    21    25    26    1
    22     9    10   am
    23    10    11    2
    24     7     2   ar
    25    10     4    1
    26    18    12   ar
    27    21    22    1
    28    21    23    1
    29    26    27    1
@<TRIPOS>MOLECULE
*****
 27 29 0 0 0
SMALL
GASTEIGER

@<TRIPOS>ATOM
      1 C          62.7889   90.9905    9.8717 C.3     1  UNL1        0.0518
      2 C          63.5573   91.0683   11.1576 C.ar    1  UNL1        0.0568
      3 N          64.5494   92.1726   11.3728 N.ar    1  UNL1       -0.2456
      4 C          65.3178   92.2504   12.6587 C.ar    1  UNL1        0.1319
      5 C          65.0942   91.2239   13.7293 C.ar    1  UNL1        0.0196
      6 C          64.1021   90.1195   13.5141 C.ar    1  UNL1       -0.0015
      7 C          63.3337   90.0418   12.2282 C.ar    1  UNL1        0.0068
      8 C          65.9917   91.5557   14.8845 C.3     1  UNL1        0.1222
      9 N          66.7700   92.7873   14.5277 N.am    1  UNL1       -0.2681
     10 C          66.3535   93.2167   13.1522 C.2     1  UNL1        0.2668
     11 O          66.8803   94.4039   12.4018 O.2     1  UNL1       -0.2683
     12 C          63.8785   89.0929   14.5847 C.ar    1  UNL1        0.0102
     13 C          64.2224   87.6555   14.3289 C.ar    1  UNL1        0.0017
     14 C          63.9987   86.6289   15.3994 C.ar    1  UNL1        0.0114
     15 C          63.4312   87.0398   16.7257 C.ar    1  UNL1        0.0585
     16 CL         63.2075   86.0131   17.7962 Cl      1  UNL1       -0.0822
     17 C          63.0873   88.4772   16.9815 C.ar    1  UNL1        0.0228
     18 C          63.3109   89.5039   15.9110 C.ar    1  UNL1        0.0585
     19 CL         62.9670   90.9413   16.1667 Cl      1  UNL1       -0.0822
     20 C          62.3416   88.9374   12.0129 C.3     1  UNL1        0.0934
     21 N          60.8756   89.2014   12.1889 N.3     1  UNL1       -0.3174
     22 H          60.6837   89.4148   13.1677 H       1  UNL1        0.1192
     23 H          60.3456   88.3754   11.9108 H       1  UNL1        0.1192
     24 C          67.7864   93.4698   15.3944 C.3     1  UNL1        0.1257
     25 C          69.2157   93.0152   15.3742 C.3     1  UNL1        0.1586
     26 O          69.7737   92.3488   14.1517 O.3     1  UNL1       -0.3802
     27 H          69.3305   91.4965   14.0172 H       1  UNL1        0.2105
@<TRIPOS>BOND
     1     1     2    1
     2     2     3   ar
     3     3     4   ar
     4     4     5   ar
     5     5     6   ar
     6     6    12    1
     7    12    13   ar
     8    13    14   ar
     9    14    15   ar
    10    15    16    1
    11    15    17   ar
    12    17    18   ar
    13    18    19    1
    14     6     7   ar
    15     7    20    1
    16    20    21    1
    17     5     8    1
    18     8     9    1
    19     9    24    1
    20    24    25    1
    21    25    26    1
    22     9    10   am
    23    10    11    2
    24     7     2   ar
    25    10     4    1
    26    18    12   ar
    27    21    22    1
    28    21    23    1
    29    26    27    1
@<TRIPOS>MOLECULE
*****
 27 29 0 0 0
SMALL
GASTEIGER

@<TRIPOS>ATOM
      1 C          64.5073   88.5546   14.5424 C.3     1  UNL1        0.0518
      2 C          63.9443   87.3608   13.8296 C.ar    1  UNL1        0.0568
      3 N          64.2000   85.9812   14.3599 N.ar    1  UNL1       -0.2456
      4 C          63.6370   84.7875   13.6472 C.ar    1  UNL1        0.1319
      5 C          62.8183   84.9733   12.4042 C.ar    1  UNL1        0.0196
      6 C          62.5625   86.3529   11.8739 C.ar    1  UNL1       -0.0015
      7 C          63.1256   87.5467   12.5867 C.ar    1  UNL1        0.0068
      8 C          62.3965   83.6178   11.9198 C.3     1  UNL1        0.1222
      9 N          62.9546   82.5941   12.8636 N.am    1  UNL1       -0.2681
     10 C          63.7213   83.3170   13.9311 C.2     1  UNL1        0.2668
     11 O          64.4451   82.6811   15.0808 O.2     1  UNL1       -0.2683
     12 C          61.7438   86.5389   10.6308 C.ar    1  UNL1        0.0102
     13 C          60.4874   87.3571   10.6758 C.ar    1  UNL1        0.0017
     14 C          59.6686   87.5431    9.4328 C.ar    1  UNL1        0.0114
     15 C          60.1063   86.9109    8.1449 C.ar    1  UNL1        0.0585
     16 CL         59.2875   87.0969    6.9019 Cl      1  UNL1       -0.0822
     17 C          61.3626   86.0927    8.0999 C.ar    1  UNL1        0.0228
     18 C          62.1814   85.9067    9.3429 C.ar    1  UNL1        0.0585
     19 CL         63.4378   85.0884    9.2980 Cl      1  UNL1       -0.0822
     20 C          62.8698   88.9264   12.0563 C.3     1  UNL1        0.0934
     21 N          61.8714   89.8173   12.7341 N.3     1  UNL1       -0.3174
     22 H          60.9374   89.4198   12.6332 H       1  UNL1        0.1192
     23 H          61.8952   90.7426   12.3055 H       1  UNL1        0.1192
     24 C          62.7773   81.1084   12.7583 C.3     1  UNL1        0.1257
     25 C          61.9268   80.3819   13.7577 C.3     1  UNL1        0.1586
     26 O          60.8984   81.1306   14.5526 O.3     1  UNL1       -0.3802
     27 H          61.3413   81.7597   15.1433 H       1  UNL1        0.2105
@<TRIPOS>BOND
     1     1     2    1
     2     2     3   ar
     3     3     4   ar
     4     4     5   ar
     5     5     6   ar
     6     6    12    1
     7    12    13   ar
     8    13    14   ar
     9    14    15   ar
    10    15    16    1
    11    15    17   ar
    12    17    18   ar
    13    18    19    1
    14     6     7   ar
    15     7    20    1
    16    20    21    1
    17     5     8    1
    18     8     9    1
    19     9    24    1
    20    24    25    1
    21    25    26    1
    22     9    10   am
    23    10    11    2
    24     7     2   ar
    25    10     4    1
    26    18    12   ar
    27    21    22    1
    28    21    23    1
    29    26    27    1
@<TRIPOS>MOLECULE
*****
 27 29 0 0 0
SMALL
GASTEIGER

@<TRIPOS>ATOM
      1 C          63.3064   90.5553   12.4071 C.3     1  UNL1        0.0518
      2 C          63.1979   89.0632   12.2973 C.ar    1  UNL1        0.0568
      3 N          63.5345   88.1981   13.4755 N.ar    1  UNL1       -0.2456
      4 C          63.4260   86.7061   13.3657 C.ar    1  UNL1        0.1319
      5 C          62.9808   86.0792   12.0778 C.ar    1  UNL1        0.0196
      6 C          62.6442   86.9443   10.8996 C.ar    1  UNL1       -0.0015
      7 C          62.7528   88.4364   11.0094 C.ar    1  UNL1        0.0068
      8 C          62.9685   84.5912   12.2664 C.3     1  UNL1        0.1222
      9 N          63.4061   84.2984   13.6710 N.am    1  UNL1       -0.2681
     10 C          63.6888   85.6055   14.3504 C.2     1  UNL1        0.2668
     11 O          64.1529   85.7810   15.7660 O.2     1  UNL1       -0.2683
     12 C          62.1990   86.3175    9.6115 C.ar    1  UNL1        0.0102
     13 C          63.1854   85.5778    8.7573 C.ar    1  UNL1        0.0017
     14 C          62.7403   84.9509    7.4692 C.ar    1  UNL1        0.0114
     15 C          61.3089   85.0639    7.0356 C.ar    1  UNL1        0.0585
     16 CL         60.8638   84.4371    5.7475 Cl      1  UNL1       -0.0822
     17 C          60.3225   85.8037    7.8898 C.ar    1  UNL1        0.0228
     18 C          60.7676   86.4305    9.1779 C.ar    1  UNL1        0.0585
     19 CL         59.7812   87.1703   10.0321 Cl      1  UNL1       -0.0822
     20 C          62.4161   89.3016    9.8311 C.3     1  UNL1        0.0934
     21 N          61.1991   90.1778    9.8674 N.3     1  UNL1       -0.3174
     22 H          60.3620   89.5958    9.8965 H       1  UNL1        0.1192
     23 H          61.1770   90.7637    9.0327 H       1  UNL1        0.1192
     24 C          63.5378   82.9375   14.2878 C.3     1  UNL1        0.1257
     25 C          62.7409   81.7880   13.7458 C.3     1  UNL1        0.1586
     26 O          63.0194   80.3924   14.2201 O.3     1  UNL1       -0.3802
     27 H          63.9064   80.1245   13.9333 H       1  UNL1        0.2105
@<TRIPOS>BOND
     1     1     2    1
     2     2     3   ar
     3     3     4   ar
     4     4     5   ar
     5     5     6   ar
     6     6    12    1
     7    12    13   ar
     8    13    14   ar
     9    14    15   ar
    10    15    16    1
    11    15    17   ar
    12    17    18   ar
    13    18    19    1
    14     6     7   ar
    15     7    20    1
    16    20    21    1
    17     5     8    1
    18     8     9    1
    19     9    24    1
    20    24    25    1
    21    25    26    1
    22     9    10   am
    23    10    11    2
    24     7     2   ar
    25    10     4    1
    26    18    12   ar
    27    21    22    1
    28    21    23    1
    29    26    27    1
@<TRIPOS>MOLECULE
*****
 27 29 0 0 0
SMALL
GASTEIGER

@<TRIPOS>ATOM
      1 C          64.3493   89.5131   14.2316 C.3     1  UNL1        0.0518
      2 C          63.8582   88.2486   13.5912 C.ar    1  UNL1        0.0568
      3 N          64.2271   86.9184   14.1780 N.ar    1  UNL1       -0.2456
      4 C          63.7360   85.6540   13.5376 C.ar    1  UNL1        0.1319
      5 C          62.8759   85.7199   12.3105 C.ar    1  UNL1        0.0196
      6 C          62.5069   87.0501   11.7237 C.ar    1  UNL1       -0.0015
      7 C          62.9981   88.3145   12.3641 C.ar    1  UNL1        0.0068
      8 C          62.5430   84.3155   11.9018 C.3     1  UNL1        0.1222
      9 N          63.1974   83.3818   12.8764 N.am    1  UNL1       -0.2681
     10 C          63.9347   84.2090   13.8874 C.2     1  UNL1        0.2668
     11 O          64.7309   83.6834   15.0449 O.2     1  UNL1       -0.2683
     12 C          61.6468   87.1160   10.4965 C.ar    1  UNL1        0.0102
     13 C          62.1467   86.5529    9.1992 C.ar    1  UNL1        0.0017
     14 C          61.2867   86.6188    7.9720 C.ar    1  UNL1        0.0114
     15 C          59.9268   87.2478    8.0422 C.ar    1  UNL1        0.0585
     16 CL         59.0667   87.3136    6.8150 Cl      1  UNL1       -0.0822
     17 C          59.4269   87.8109    9.3395 C.ar    1  UNL1        0.0228
     18 C          60.2869   87.7450   10.5667 C.ar    1  UNL1        0.0585
     19 CL         59.7870   88.3081   11.8640 Cl      1  UNL1       -0.0822
     20 C          62.6291   89.6448   11.7773 C.3     1  UNL1        0.0934
     21 N          63.2002   90.0660   10.4558 N.3     1  UNL1       -0.3174
     22 H          64.2083   90.1929   10.5459 H       1  UNL1        0.1192
     23 H          62.7716   90.9446   10.1647 H       1  UNL1        0.1192
     24 C          63.1269   81.8837   12.8455 C.3     1  UNL1        0.1257
     25 C          62.1481   81.1607   13.7224 C.3     1  UNL1        0.1586
     26 O          61.7498   81.7472   15.0444 O.3     1  UNL1       -0.3802
     27 H          62.5180   81.7617   15.6363 H       1  UNL1        0.2105
@<TRIPOS>BOND
     1     1     2    1
     2     2     3   ar
     3     3     4   ar
     4     4     5   ar
     5     5     6   ar
     6     6    12    1
     7    12    13   ar
     8    13    14   ar
     9    14    15   ar
    10    15    16    1
    11    15    17   ar
    12    17    18   ar
    13    18    19    1
    14     6     7   ar
    15     7    20    1
    16    20    21    1
    17     5     8    1
    18     8     9    1
    19     9    24    1
    20    24    25    1
    21    25    26    1
    22     9    10   am
    23    10    11    2
    24     7     2   ar
    25    10     4    1
    26    18    12   ar
    27    21    22    1
    28    21    23    1
    29    26    27    1
@<TRIPOS>MOLECULE
*****
 27 29 0 0 0
SMALL
GASTEIGER

@<TRIPOS>ATOM
      1 C          63.8681   84.2764   15.1812 C.3     1  UNL1        0.0518
      2 C          63.6611   85.4218   14.2350 C.ar    1  UNL1        0.0568
      3 N          64.0084   86.8178   14.6600 N.ar    1  UNL1       -0.2456
      4 C          63.8015   87.9632   13.7138 C.ar    1  UNL1        0.1319
      5 C          63.2473   87.7126   12.3426 C.ar    1  UNL1        0.0196
      6 C          62.9001   86.3167   11.9176 C.ar    1  UNL1       -0.0015
      7 C          63.1070   85.1713   12.8639 C.ar    1  UNL1        0.0068
      8 C          63.1531   89.0306   11.6327 C.3     1  UNL1        0.1222
      9 N          63.6491   90.0958   12.5652 N.am    1  UNL1       -0.2681
     10 C          64.0498   89.4361   13.8514 C.2     1  UNL1        0.2668
     11 O          64.6019   90.1278   15.0624 O.2     1  UNL1       -0.2683
     12 C          62.3459   86.0660   10.5464 C.ar    1  UNL1        0.0102
     13 C          63.1407   85.2762    9.5492 C.ar    1  UNL1        0.0017
     14 C          62.5866   85.0255    8.1780 C.ar    1  UNL1        0.0114
     15 C          61.2377   85.5646    7.8042 C.ar    1  UNL1        0.0585
     16 CL         60.6836   85.3139    6.4330 Cl      1  UNL1       -0.0822
     17 C          60.4429   86.3545    8.8014 C.ar    1  UNL1        0.0228
     18 C          60.9970   86.6052   10.1726 C.ar    1  UNL1        0.0585
     19 CL         60.2022   87.3950   11.1698 Cl      1  UNL1       -0.0822
     20 C          62.7597   83.7752   12.4388 C.3     1  UNL1        0.0934
     21 N          63.8331   82.8546   11.9386 N.3     1  UNL1       -0.3174
     22 H          64.2058   83.2130   11.0593 H       1  UNL1        0.1192
     23 H          63.4409   81.9252   11.7879 H       1  UNL1        0.1192
     24 C          63.7302   91.5631   12.2643 C.3     1  UNL1        0.1257
     25 C          65.0476   92.2749   12.3513 C.3     1  UNL1        0.1586
     26 O          65.5769   92.7130   13.6848 O.3     1  UNL1       -0.3802
     27 H          64.9976   93.3982   14.0533 H       1  UNL1        0.2105
@<TRIPOS>BOND
     1     1     2    1
     2     2     3   ar
     3     3     4   ar
     4     4     5   ar
     5     5     6   ar
     6     6    12    1
     7    12    13   ar
     8    13    14   ar
     9    14    15   ar
    10    15    16    1
    11    15    17   ar
    12    17    18   ar
    13    18    19    1
    14     6     7   ar
    15     7    20    1
    16    20    21    1
    17     5     8    1
    18     8     9    1
    19     9    24    1
    20    24    25    1
    21    25    26    1
    22     9    10   am
    23    10    11    2
    24     7     2   ar
    25    10     4    1
    26    18    12   ar
    27    21    22    1
    28    21    23    1
    29    26    27    1
@<TRIPOS>MOLECULE
*****
 27 29 0 0 0
SMALL
GASTEIGER

@<TRIPOS>ATOM
      1 C          61.0387   89.1106    9.5599 C.3     1  UNL1        0.0518
      2 C          61.8630   88.6188   10.7126 C.ar    1  UNL1        0.0568
      3 N          61.9433   87.1496   11.0042 N.ar    1  UNL1       -0.2456
      4 C          62.7676   86.6577   12.1568 C.ar    1  UNL1        0.1319
      5 C          63.5116   87.6350   13.0178 C.ar    1  UNL1        0.0196
      6 C          63.4314   89.1041   12.7262 C.ar    1  UNL1       -0.0015
      7 C          62.6070   89.5960   11.5735 C.ar    1  UNL1        0.0068
      8 C          64.2382   86.8602   14.0770 C.3     1  UNL1        0.1222
      9 N          63.9433   85.4040   13.8705 N.am    1  UNL1       -0.2681
     10 C          63.0344   85.2789   12.6838 C.2     1  UNL1        0.2668
     11 O          62.4882   83.9995   12.1226 O.2     1  UNL1       -0.2683
     12 C          64.1754   90.0815   13.5872 C.ar    1  UNL1        0.0102
     13 C          65.3437   90.8369   13.0266 C.ar    1  UNL1        0.0017
     14 C          66.0878   91.8143   13.8875 C.ar    1  UNL1        0.0114
     15 C          65.6634   92.0362   15.3090 C.ar    1  UNL1        0.0585
     16 CL         66.4075   93.0136   16.1699 Cl      1  UNL1       -0.0822
     17 C          64.4951   91.2808   15.8696 C.ar    1  UNL1        0.0228
     18 C          63.7510   90.3034   15.0087 C.ar    1  UNL1        0.0585
     19 CL         62.5827   89.5480   15.5693 Cl      1  UNL1       -0.0822
     20 C          62.5267   91.0653   11.2819 C.3     1  UNL1        0.0934
     21 N          63.1334   91.6146   10.0249 N.3     1  UNL1       -0.3174
     22 H          64.1466   91.5025   10.0592 H       1  UNL1        0.1192
     23 H          62.9035   92.6048    9.9409 H       1  UNL1        0.1192
     24 C          64.4655   84.2718   14.7043 C.3     1  UNL1        0.1257
     25 C          63.5277   83.4818   15.5682 C.3     1  UNL1        0.1586
     26 O          62.6862   82.3965   14.9646 O.3     1  UNL1       -0.3802
     27 H          62.0480   82.7876   14.3476 H       1  UNL1        0.2105
@<TRIPOS>BOND
     1     1     2    1
     2     2     3   ar
     3     3     4   ar
     4     4     5   ar
     5     5     6   ar
     6     6    12    1
     7    12    13   ar
     8    13    14   ar
     9    14    15   ar
    10    15    16    1
    11    15    17   ar
    12    17    18   ar
    13    18    19    1
    14     6     7   ar
    15     7    20    1
    16    20    21    1
    17     5     8    1
    18     8     9    1
    19     9    24    1
    20    24    25    1
    21    25    26    1
    22     9    10   am
    23    10    11    2
    24     7     2   ar
    25    10     4    1
    26    18    12   ar
    27    21    22    1
    28    21    23    1
    29    26    27    1
@<TRIPOS>MOLECULE
*****
 27 29 0 0 0
SMALL
GASTEIGER

@<TRIPOS>ATOM
      1 C          63.4250   93.5618   -2.4744 C.3     1  UNL1        0.0518
      2 C          62.3616   93.4597   -1.4214 C.ar    1  UNL1        0.0568
      3 N          62.7248   93.0446   -0.0265 N.ar    1  UNL1       -0.2456
      4 C          61.6614   92.9425    1.0265 C.ar    1  UNL1        0.1319
      5 C          60.2348   93.2555    0.6846 C.ar    1  UNL1        0.0196
      6 C          59.8716   93.6706   -0.7103 C.ar    1  UNL1       -0.0015
      7 C          60.9351   93.7727   -1.7633 C.ar    1  UNL1        0.0068
      8 C          59.4095   93.0682    1.9230 C.3     1  UNL1        0.1222
      9 N          60.3260   92.6394    3.0303 N.am    1  UNL1       -0.2681
     10 C          61.7178   92.5617    2.4763 C.2     1  UNL1        0.2668
     11 O          62.9496   92.1718    3.2382 O.2     1  UNL1       -0.2683
     12 C          58.4450   93.9836   -1.0523 C.ar    1  UNL1        0.0102
     13 C          57.5242   92.8885   -1.5027 C.ar    1  UNL1        0.0017
     14 C          56.0976   93.2014   -1.8447 C.ar    1  UNL1        0.0114
     15 C          55.5919   94.6094   -1.7362 C.ar    1  UNL1        0.0585
     16 CL         54.1653   94.9223   -2.0782 Cl      1  UNL1       -0.0822
     17 C          56.5127   95.7045   -1.2858 C.ar    1  UNL1        0.0228
     18 C          57.9393   95.3916   -0.9438 C.ar    1  UNL1        0.0585
     19 CL         58.8601   96.4866   -0.4933 Cl      1  UNL1       -0.0822
     20 C          60.5718   94.1878   -3.1583 C.3     1  UNL1        0.0934
     21 N          60.5753   95.6401   -3.5335 N.3     1  UNL1       -0.3174
     22 H          59.8445   96.1271   -3.0147 H       1  UNL1        0.1192
     23 H          60.4015   95.7332   -4.5343 H       1  UNL1        0.1192
     24 C          59.9218   92.3408    4.4436 C.3     1  UNL1        0.1257
     25 C          58.6502   91.5942    4.7182 C.3     1  UNL1        0.1586
     26 O          57.4168   92.3404    5.1328 O.3     1  UNL1       -0.3802
     27 H          57.5598   92.7429    6.0037 H       1  UNL1        0.2105
@<TRIPOS>BOND
     1     1     2    1
     2     2     3   ar
     3     3     4   ar
     4     4     5   ar
     5     5     6   ar
     6     6    12    1
     7    12    13   ar
     8    13    14   ar
     9    14    15   ar
    10    15    16    1
    11    15    17   ar
    12    17    18   ar
    13    18    19    1
    14     6     7   ar
    15     7    20    1
    16    20    21    1
    17     5     8    1
    18     8     9    1
    19     9    24    1
    20    24    25    1
    21    25    26    1
    22     9    10   am
    23    10    11    2
    24     7     2   ar
    25    10     4    1
    26    18    12   ar
    27    21    22    1
    28    21    23    1
    29    26    27    1
@<TRIPOS>MOLECULE
*****
 27 29 0 0 0
SMALL
GASTEIGER

@<TRIPOS>ATOM
      1 C          62.7608   92.4618    2.2829 C.3     1  UNL1        0.0518
      2 C          62.2297   92.8473    0.9340 C.ar    1  UNL1        0.0568
      3 N          60.8143   92.5171    0.5629 N.ar    1  UNL1       -0.2456
      4 C          60.2831   92.9025   -0.7859 C.ar    1  UNL1        0.1319
      5 C          61.1674   93.6182   -1.7636 C.ar    1  UNL1        0.0196
      6 C          62.5827   93.9484   -1.3926 C.ar    1  UNL1       -0.0015
      7 C          63.1138   93.5629   -0.0437 C.ar    1  UNL1        0.0068
      8 C          60.3718   93.8697   -3.0101 C.3     1  UNL1        0.1222
      9 N          58.9959   93.3095   -2.8028 N.am    1  UNL1       -0.2681
     10 C          58.9411   92.7118   -1.4281 C.2     1  UNL1        0.2668
     11 O          57.7528   92.0410   -0.8051 O.2     1  UNL1       -0.2683
     12 C          63.4670   94.6640   -2.3703 C.ar    1  UNL1        0.0102
     13 C          63.7012   96.1389   -2.2295 C.ar    1  UNL1        0.0017
     14 C          64.5854   96.8547   -3.2072 C.ar    1  UNL1        0.0114
     15 C          65.2355   96.0954   -4.3256 C.ar    1  UNL1        0.0585
     16 CL         66.1198   96.8112   -5.3032 Cl      1  UNL1       -0.0822
     17 C          65.0014   94.6205   -4.4664 C.ar    1  UNL1        0.0228
     18 C          64.1171   93.9048   -3.4887 C.ar    1  UNL1        0.0585
     19 CL         63.8830   92.4299   -3.6295 Cl      1  UNL1       -0.0822
     20 C          64.5293   93.8931    0.3274 C.3     1  UNL1        0.0934
     21 N          65.5620   92.8068    0.3866 N.3     1  UNL1       -0.3174
     22 H          65.3335   92.1613    1.1425 H       1  UNL1        0.1192
     23 H          66.4794   93.2188    0.5569 H       1  UNL1        0.1192
     24 C          57.8721   93.3414   -3.7957 C.3     1  UNL1        0.1257
     25 C          57.4458   92.0802   -4.4868 C.3     1  UNL1        0.1586
     26 O          57.0715   90.8724   -3.6799 O.3     1  UNL1       -0.3802
     27 H          57.8530   90.5432   -3.2090 H       1  UNL1        0.2105
@<TRIPOS>BOND
     1     1     2    1
     2     2     3   ar
     3     3     4   ar
     4     4     5   ar
     5     5     6   ar
     6     6    12    1
     7    12    13   ar
     8    13    14   ar
     9    14    15   ar
    10    15    16    1
    11    15    17   ar
    12    17    18   ar
    13    18    19    1
    14     6     7   ar
    15     7    20    1
    16    20    21    1
    17     5     8    1
    18     8     9    1
    19     9    24    1
    20    24    25    1
    21    25    26    1
    22     9    10   am
    23    10    11    2
    24     7     2   ar
    25    10     4    1
    26    18    12   ar
    27    21    22    1
    28    21    23    1
    29    26    27    1
