@<TRIPOS>MOLECULE
*****
 37 39 0 0 0
SMALL
GASTEIGER

@<TRIPOS>ATOM
      1 C          63.4814   90.1281   16.0657 C.3     1  UNL1        0.0216
      2 C          63.6425   89.4228   14.7516 C.3     1  UNL1        0.0760
      3 N          64.0556   87.9812   14.7199 N.am    1  UNL1       -0.3028
      4 C          63.4980   87.0189   15.7264 C.2     1  UNL1        0.2587
      5 O          62.5275   87.4982   16.7647 O.2     1  UNL1       -0.2714
      6 H          64.6926   87.6666   14.0384 H       1  UNL1        0.1495
      7 C          63.9112   85.5772   15.6946 C.3     1  UNL1        0.2022
      8 C          65.1875   85.9582   15.0048 C.3     1  UNL1        0.0532
      9 C          62.6349   85.1962   16.3843 C.3     1  UNL1        0.0532
     10 O          64.3243   84.1356   15.6627 O.3     1  UNL1       -0.4586
     11 C          64.0200   83.2946   14.4585 C.ar    1  UNL1        0.2251
     12 C          64.2770   83.8339   13.0827 C.ar    1  UNL1        0.0577
     13 C          63.9726   82.9929   11.8785 C.ar    1  UNL1        0.0102
     14 C          63.4112   81.6125   12.0502 C.ar    1  UNL1        0.0907
     15 C          63.1542   81.0732   13.4261 C.ar    1  UNL1        0.1059
     16 N          63.4586   81.9142   14.6302 N.ar    1  UNL1       -0.2102
     17 C          63.1069   80.7715   10.8460 C.3     1  UNL1        0.4200
     18 F          62.8025   79.9305    9.6418 F       1  UNL1       -0.1658
     19 F          62.6478   79.6578   11.7398 F       1  UNL1       -0.1658
     20 F          63.5660   81.8852    9.9522 F       1  UNL1       -0.1658
     21 C          63.3905   90.1592   13.4694 C.3     1  UNL1        0.0446
     22 C          64.4479   91.0585   12.9007 C.ar    1  UNL1       -0.0199
     23 C          64.2749   91.6473   11.5320 C.ar    1  UNL1       -0.0042
     24 C          65.3322   92.5465   10.9633 C.ar    1  UNL1        0.0004
     25 C          66.5624   92.8570   11.7633 C.ar    1  UNL1        0.0103
     26 C          66.7354   92.2683   13.1321 C.ar    1  UNL1        0.0681
     27 C          65.6781   91.3690   13.7007 C.ar    1  UNL1        0.0061
     28 C          67.9656   92.5788   13.9321 C.1     1  UNL1        0.1004
     29 N          69.1958   92.8894   14.7322 N.1     1  UNL1       -0.1908
     30 C          62.0813   89.9963   12.7558 C.3     1  UNL1        0.0323
     31 C          61.9528   88.9991   11.6425 C.ar    1  UNL1       -0.0218
     32 C          61.2443   89.3767   10.3755 C.ar    1  UNL1       -0.0034
     33 C          61.1158   88.3796    9.2623 C.ar    1  UNL1        0.0111
     34 C          61.6959   87.0049    9.4162 C.ar    1  UNL1        0.0577
     35 CL         61.5675   86.0077    8.3030 Cl      1  UNL1       -0.0822
     36 C          62.4045   86.6273   10.6832 C.ar    1  UNL1        0.0111
     37 C          62.5330   87.6245   11.7964 C.ar    1  UNL1       -0.0034
@<TRIPOS>BOND
     1     2     1    1
     2     2     3    1
     3     3     4   am
     4     4     5    2
     5     4     7    1
     6     7     8    1
     7     7     9    1
     8     7    10    1
     9    10    11    1
    10    11    12   ar
    11    12    13   ar
    12    13    14   ar
    13    14    17    1
    14    17    18    1
    15    17    19    1
    16    17    20    1
    17    14    15   ar
    18    15    16   ar
    19     2    21    1
    20    21    30    1
    21    30    31    1
    22    31    32   ar
    23    32    33   ar
    24    33    34   ar
    25    34    35    1
    26    34    36   ar
    27    36    37   ar
    28    21    22    1
    29    22    23   ar
    30    23    24   ar
    31    24    25   ar
    32    25    26   ar
    33    26    28    1
    34    28    29    3
    35    26    27   ar
    36    16    11   ar
    37    37    31   ar
    38    27    22   ar
    39     3     6    1
@<TRIPOS>MOLECULE
*****
 37 39 0 0 0
SMALL
GASTEIGER

@<TRIPOS>ATOM
      1 C          63.2205   89.9650   16.4060 C.3     1  UNL1        0.0216
      2 C          63.7043   89.3923   15.1068 C.3     1  UNL1        0.0760
      3 N          64.1325   87.9566   15.0332 N.am    1  UNL1       -0.3028
      4 C          63.4415   86.9239   15.8734 C.2     1  UNL1        0.2587
      5 O          62.3224   87.3268   16.7873 O.2     1  UNL1       -0.2714
      6 H          64.8670   87.6921   14.4334 H       1  UNL1        0.1495
      7 C          63.8698   85.4881   15.7998 C.3     1  UNL1        0.2022
      8 C          65.1551   85.9049   15.1485 C.3     1  UNL1        0.0532
      9 C          62.5845   85.0713   16.4510 C.3     1  UNL1        0.0532
     10 O          64.2980   84.0525   15.7261 O.3     1  UNL1       -0.4586
     11 C          63.9954   83.2414   14.5010 C.ar    1  UNL1        0.2251
     12 C          64.4300   83.7308   13.1514 C.ar    1  UNL1        0.0577
     13 C          64.1274   82.9198   11.9264 C.ar    1  UNL1        0.0102
     14 C          63.3903   81.6194   12.0511 C.ar    1  UNL1        0.0907
     15 C          62.9557   81.1300   13.4007 C.ar    1  UNL1        0.1059
     16 N          63.2583   81.9410   14.6257 N.ar    1  UNL1       -0.2102
     17 C          63.0877   80.8083   10.8260 C.3     1  UNL1        0.4200
     18 F          62.7852   79.9974    9.6010 F       1  UNL1       -0.1658
     19 F          62.6374   79.6690   11.6915 F       1  UNL1       -0.1658
     20 F          63.5380   81.9477    9.9606 F       1  UNL1       -0.1658
     21 C          63.7600   90.2552   13.8811 C.3     1  UNL1        0.0446
     22 C          64.9839   91.0740   13.5953 C.ar    1  UNL1       -0.0199
     23 C          66.0874   91.1521   14.6083 C.ar    1  UNL1       -0.0042
     24 C          67.3113   91.9709   14.3225 C.ar    1  UNL1        0.0004
     25 C          67.4317   92.7114   13.0236 C.ar    1  UNL1        0.0103
     26 C          66.3282   92.6333   12.0106 C.ar    1  UNL1        0.0681
     27 C          65.1043   91.8146   12.2964 C.ar    1  UNL1        0.0061
     28 C          66.4487   93.3739   10.7117 C.1     1  UNL1        0.1004
     29 N          66.5691   94.1145    9.4129 N.1     1  UNL1       -0.1908
     30 C          62.5917   90.2995   12.9414 C.3     1  UNL1        0.0323
     31 C          62.4244   89.2310   11.9019 C.ar    1  UNL1       -0.0218
     32 C          62.7555   87.8056   12.2315 C.ar    1  UNL1       -0.0034
     33 C          62.5883   86.7371   11.1922 C.ar    1  UNL1        0.0111
     34 C          62.0899   87.0940    9.8232 C.ar    1  UNL1        0.0577
     35 CL         61.9226   86.0255    8.7837 Cl      1  UNL1       -0.0822
     36 C          61.7588   88.5194    9.4935 C.ar    1  UNL1        0.0111
     37 C          61.9260   89.5879   10.5329 C.ar    1  UNL1       -0.0034
@<TRIPOS>BOND
     1     2     1    1
     2     2     3    1
     3     3     4   am
     4     4     5    2
     5     4     7    1
     6     7     8    1
     7     7     9    1
     8     7    10    1
     9    10    11    1
    10    11    12   ar
    11    12    13   ar
    12    13    14   ar
    13    14    17    1
    14    17    18    1
    15    17    19    1
    16    17    20    1
    17    14    15   ar
    18    15    16   ar
    19     2    21    1
    20    21    30    1
    21    30    31    1
    22    31    32   ar
    23    32    33   ar
    24    33    34   ar
    25    34    35    1
    26    34    36   ar
    27    36    37   ar
    28    21    22    1
    29    22    23   ar
    30    23    24   ar
    31    24    25   ar
    32    25    26   ar
    33    26    28    1
    34    28    29    3
    35    26    27   ar
    36    16    11   ar
    37    37    31   ar
    38    27    22   ar
    39     3     6    1
@<TRIPOS>MOLECULE
*****
 37 39 0 0 0
SMALL
GASTEIGER

@<TRIPOS>ATOM
      1 C          63.6536   90.7116   16.1677 C.3     1  UNL1        0.0216
      2 C          63.9508   89.9539   14.9077 C.3     1  UNL1        0.0760
      3 N          64.2407   88.4834   14.9676 N.am    1  UNL1       -0.3028
      4 C          63.4508   87.6000   15.8872 C.2     1  UNL1        0.2587
      5 O          62.3710   88.1872   16.7470 O.2     1  UNL1       -0.2714
      6 H          64.9494   88.0980   14.4032 H       1  UNL1        0.1495
      7 C          63.7407   86.1295   15.9470 C.3     1  UNL1        0.2022
      8 C          64.7473   86.2832   14.8456 C.3     1  UNL1        0.0532
      9 C          62.7341   85.9758   17.0484 C.3     1  UNL1        0.0532
     10 O          64.0306   84.6590   16.0068 O.3     1  UNL1       -0.4586
     11 C          63.7971   83.7988   14.8002 C.ar    1  UNL1        0.2251
     12 C          62.5503   82.9711   14.6993 C.ar    1  UNL1        0.0577
     13 C          62.3168   82.1110   13.4928 C.ar    1  UNL1        0.0102
     14 C          63.3301   82.0786   12.3873 C.ar    1  UNL1        0.0907
     15 C          64.5769   82.9064   12.4882 C.ar    1  UNL1        0.1059
     16 N          64.8104   83.7665   13.6947 N.ar    1  UNL1       -0.2102
     17 C          63.0965   81.2185   11.1808 C.3     1  UNL1        0.4200
     18 F          62.8629   80.3583    9.9743 F       1  UNL1       -0.1658
     19 F          63.6138   82.3156   10.2984 F       1  UNL1       -0.1658
     20 F          62.5792   80.1213   12.0631 F       1  UNL1       -0.1658
     21 C          63.9582   90.6666   13.5879 C.3     1  UNL1        0.0446
     22 C          63.2520   90.0673   12.4079 C.ar    1  UNL1       -0.0199
     23 C          62.7132   90.9556   11.3259 C.ar    1  UNL1       -0.0042
     24 C          62.0070   90.3564   10.1460 C.ar    1  UNL1        0.0004
     25 C          61.8397   88.8690   10.0481 C.ar    1  UNL1        0.0103
     26 C          62.3785   87.9808   11.1301 C.ar    1  UNL1        0.0681
     27 C          63.0847   88.5800   12.3100 C.ar    1  UNL1        0.0061
     28 C          62.2111   86.4933   11.0321 C.1     1  UNL1        0.1004
     29 N          62.0438   85.0060   10.9341 N.1     1  UNL1       -0.1908
     30 C          64.6717   91.9786   13.4480 C.3     1  UNL1        0.0323
     31 C          65.7626   92.1342   12.4302 C.ar    1  UNL1       -0.0218
     32 C          67.1683   91.7365   12.7707 C.ar    1  UNL1       -0.0034
     33 C          68.2591   91.8921   11.7529 C.ar    1  UNL1        0.0111
     34 C          67.9443   92.4455   10.3948 C.ar    1  UNL1        0.0577
     35 CL         69.0352   92.6012    9.3770 Cl      1  UNL1       -0.0822
     36 C          66.5386   92.8433   10.0544 C.ar    1  UNL1        0.0111
     37 C          65.4478   92.6876   11.0721 C.ar    1  UNL1       -0.0034
@<TRIPOS>BOND
     1     2     1    1
     2     2     3    1
     3     3     4   am
     4     4     5    2
     5     4     7    1
     6     7     8    1
     7     7     9    1
     8     7    10    1
     9    10    11    1
    10    11    12   ar
    11    12    13   ar
    12    13    14   ar
    13    14    17    1
    14    17    18    1
    15    17    19    1
    16    17    20    1
    17    14    15   ar
    18    15    16   ar
    19     2    21    1
    20    21    30    1
    21    30    31    1
    22    31    32   ar
    23    32    33   ar
    24    33    34   ar
    25    34    35    1
    26    34    36   ar
    27    36    37   ar
    28    21    22    1
    29    22    23   ar
    30    23    24   ar
    31    24    25   ar
    32    25    26   ar
    33    26    28    1
    34    28    29    3
    35    26    27   ar
    36    16    11   ar
    37    37    31   ar
    38    27    22   ar
    39     3     6    1
@<TRIPOS>MOLECULE
*****
 37 39 0 0 0
SMALL
GASTEIGER

@<TRIPOS>ATOM
      1 C          63.5586   90.4862   16.0644 C.3     1  UNL1        0.0216
      2 C          63.8773   89.7498   14.7970 C.3     1  UNL1        0.0760
      3 N          64.1828   88.2819   14.8391 N.am    1  UNL1       -0.3028
      4 C          63.4609   87.3931   15.8080 C.2     1  UNL1        0.2587
      5 O          62.4335   87.9722   16.7349 O.2     1  UNL1       -0.2714
      6 H          64.8571   87.9018   14.2308 H       1  UNL1        0.1495
      7 C          63.7664   85.9251   15.8501 C.3     1  UNL1        0.2022
      8 C          64.9067   86.1352   14.8985 C.3     1  UNL1        0.0532
      9 C          62.6262   85.7150   16.8017 C.3     1  UNL1        0.0532
     10 O          64.0720   84.4571   15.8921 O.3     1  UNL1       -0.4586
     11 C          63.8294   83.6056   14.6813 C.ar    1  UNL1        0.2251
     12 C          62.6629   82.6631   14.6486 C.ar    1  UNL1        0.0577
     13 C          62.4204   81.8116   13.4379 C.ar    1  UNL1        0.0102
     14 C          63.3443   81.9026   12.2597 C.ar    1  UNL1        0.0907
     15 C          64.5107   82.8450   12.2923 C.ar    1  UNL1        0.1059
     16 N          64.7533   83.6965   13.5031 N.ar    1  UNL1       -0.2102
     17 C          63.1017   81.0510   11.0488 C.3     1  UNL1        0.4200
     18 F          62.8591   80.1994    9.8381 F       1  UNL1       -0.1658
     19 F          63.5717   82.1701   10.1676 F       1  UNL1       -0.1658
     20 F          62.6317   79.9319   11.9301 F       1  UNL1       -0.1658
     21 C          63.8906   90.4814   13.4876 C.3     1  UNL1        0.0446
     22 C          63.1966   89.8952   12.2939 C.ar    1  UNL1       -0.0199
     23 C          62.6952   90.7932   11.2020 C.ar    1  UNL1       -0.0042
     24 C          62.0012   90.2071   10.0084 C.ar    1  UNL1        0.0004
     25 C          61.8086   88.7230    9.9066 C.ar    1  UNL1        0.0103
     26 C          62.3100   87.8250   10.9985 C.ar    1  UNL1        0.0681
     27 C          63.0040   88.4111   12.1922 C.ar    1  UNL1        0.0061
     28 C          62.1174   86.3409   10.8967 C.1     1  UNL1        0.1004
     29 N          61.9248   84.8568   10.7949 N.1     1  UNL1       -0.1908
     30 C          64.5978   91.7991   13.3718 C.3     1  UNL1        0.0323
     31 C          65.8768   92.0322   14.1203 C.ar    1  UNL1       -0.0218
     32 C          67.1925   91.7125   13.4748 C.ar    1  UNL1       -0.0034
     33 C          68.4713   91.9456   14.2232 C.ar    1  UNL1        0.0111
     34 C          68.4345   92.4984   15.6171 C.ar    1  UNL1        0.0577
     35 CL         69.7134   92.7315   16.3656 Cl      1  UNL1       -0.0822
     36 C          67.1187   92.8181   16.2626 C.ar    1  UNL1        0.0111
     37 C          65.8399   92.5850   15.5142 C.ar    1  UNL1       -0.0034
@<TRIPOS>BOND
     1     2     1    1
     2     2     3    1
     3     3     4   am
     4     4     5    2
     5     4     7    1
     6     7     8    1
     7     7     9    1
     8     7    10    1
     9    10    11    1
    10    11    12   ar
    11    12    13   ar
    12    13    14   ar
    13    14    17    1
    14    17    18    1
    15    17    19    1
    16    17    20    1
    17    14    15   ar
    18    15    16   ar
    19     2    21    1
    20    21    30    1
    21    30    31    1
    22    31    32   ar
    23    32    33   ar
    24    33    34   ar
    25    34    35    1
    26    34    36   ar
    27    36    37   ar
    28    21    22    1
    29    22    23   ar
    30    23    24   ar
    31    24    25   ar
    32    25    26   ar
    33    26    28    1
    34    28    29    3
    35    26    27   ar
    36    16    11   ar
    37    37    31   ar
    38    27    22   ar
    39     3     6    1
@<TRIPOS>MOLECULE
*****
 37 39 0 0 0
SMALL
GASTEIGER

@<TRIPOS>ATOM
      1 C          60.5492   89.6044   11.8313 C.3     1  UNL1        0.0216
      2 C          61.8442   88.8475   11.8217 C.3     1  UNL1        0.0760
      3 N          63.1473   89.5904   11.8323 N.am    1  UNL1       -0.3028
      4 C          63.5939   90.3036   13.0741 C.2     1  UNL1        0.2587
      5 O          62.7375   90.2739   14.3052 O.2     1  UNL1       -0.2714
      6 H          63.7094   89.6099   11.0243 H       1  UNL1        0.1495
      7 C          64.8970   91.0466   13.0846 C.3     1  UNL1        0.2022
      8 C          65.1860   90.5200   14.4590 C.3     1  UNL1        0.0532
      9 C          64.6080   91.5732   11.7102 C.3     1  UNL1        0.0532
     10 O          66.2000   91.7895   13.0952 O.3     1  UNL1       -0.4586
     11 C          66.5090   92.7774   12.0095 C.ar    1  UNL1        0.2251
     12 C          67.2023   92.3248   10.7588 C.ar    1  UNL1        0.0577
     13 C          67.5113   93.3127    9.6732 C.ar    1  UNL1        0.0102
     14 C          67.1269   94.7532    9.8383 C.ar    1  UNL1        0.0907
     15 C          66.4337   95.2058   11.0891 C.ar    1  UNL1        0.1059
     16 N          66.1247   94.2179   12.1747 N.ar    1  UNL1       -0.2102
     17 C          67.4359   95.7411    8.7526 C.3     1  UNL1        0.4200
     18 F          67.7449   96.7290    7.6671 F       1  UNL1       -0.1658
     19 F          67.4685   94.6273    7.7484 F       1  UNL1       -0.1658
     20 F          67.4034   96.8548    9.7569 F       1  UNL1       -0.1658
     21 C          61.8362   87.3477   11.8015 C.3     1  UNL1        0.0446
     22 C          62.8057   86.5809   12.6515 C.ar    1  UNL1       -0.0199
     23 C          63.7281   87.3113   13.5819 C.ar    1  UNL1       -0.0042
     24 C          64.6975   86.5447   14.4318 C.ar    1  UNL1        0.0004
     25 C          64.7445   85.0476   14.3513 C.ar    1  UNL1        0.0103
     26 C          63.8221   84.3172   13.4209 C.ar    1  UNL1        0.0681
     27 C          62.8527   85.0839   12.5710 C.ar    1  UNL1        0.0061
     28 C          63.8691   82.8200   13.3404 C.1     1  UNL1        0.1004
     29 N          63.9161   81.3230   13.2600 N.1     1  UNL1       -0.1908
     30 C          60.8588   86.6145   10.9314 C.3     1  UNL1        0.0323
     31 C          61.2918   86.0892    9.5947 C.ar    1  UNL1       -0.0218
     32 C          60.3415   86.1166    8.4344 C.ar    1  UNL1       -0.0034
     33 C          60.7745   85.5913    7.0978 C.ar    1  UNL1        0.0111
     34 C          62.1577   85.0386    6.9215 C.ar    1  UNL1        0.0577
     35 CL         62.5907   84.5133    5.5848 Cl      1  UNL1       -0.0822
     36 C          63.1080   85.0113    8.0817 C.ar    1  UNL1        0.0111
     37 C          62.6751   85.5366    9.4183 C.ar    1  UNL1       -0.0034
@<TRIPOS>BOND
     1     2     1    1
     2     2     3    1
     3     3     4   am
     4     4     5    2
     5     4     7    1
     6     7     8    1
     7     7     9    1
     8     7    10    1
     9    10    11    1
    10    11    12   ar
    11    12    13   ar
    12    13    14   ar
    13    14    17    1
    14    17    18    1
    15    17    19    1
    16    17    20    1
    17    14    15   ar
    18    15    16   ar
    19     2    21    1
    20    21    30    1
    21    30    31    1
    22    31    32   ar
    23    32    33   ar
    24    33    34   ar
    25    34    35    1
    26    34    36   ar
    27    36    37   ar
    28    21    22    1
    29    22    23   ar
    30    23    24   ar
    31    24    25   ar
    32    25    26   ar
    33    26    28    1
    34    28    29    3
    35    26    27   ar
    36    16    11   ar
    37    37    31   ar
    38    27    22   ar
    39     3     6    1
@<TRIPOS>MOLECULE
*****
 37 39 0 0 0
SMALL
GASTEIGER

@<TRIPOS>ATOM
      1 C          60.3426   89.2782   12.2094 C.3     1  UNL1        0.0216
      2 C          61.7390   89.0127   11.7301 C.3     1  UNL1        0.0760
      3 N          62.8049   90.0523   11.9122 N.am    1  UNL1       -0.3028
      4 C          63.6604   90.0414   13.1443 C.2     1  UNL1        0.2587
      5 O          63.4501   88.9910   14.1942 O.2     1  UNL1       -0.2714
      6 H          62.9429   90.7417   11.2231 H       1  UNL1        0.1495
      7 C          64.7263   91.0810   13.3264 C.3     1  UNL1        0.2022
      8 C          64.2746   91.7642   12.0697 C.3     1  UNL1        0.0532
      9 C          65.1780   90.3979   14.5830 C.3     1  UNL1        0.0532
     10 O          65.7922   92.1206   13.5084 O.3     1  UNL1       -0.4586
     11 C          66.2013   92.9856   12.3532 C.ar    1  UNL1        0.2251
     12 C          66.8175   92.3663   11.1339 C.ar    1  UNL1        0.0577
     13 C          67.2266   93.2313    9.9787 C.ar    1  UNL1        0.0102
     14 C          67.0195   94.7156   10.0429 C.ar    1  UNL1        0.0907
     15 C          66.4034   95.3348   11.2623 C.ar    1  UNL1        0.1059
     16 N          65.9943   94.4699   12.4174 N.ar    1  UNL1       -0.2102
     17 C          67.4287   95.5806    8.8877 C.3     1  UNL1        0.4200
     18 F          67.8378   96.4456    7.7326 F       1  UNL1       -0.1658
     19 F          67.5412   94.3644    8.0169 F       1  UNL1       -0.1658
     20 F          67.3162   96.7967    9.7585 F       1  UNL1       -0.1658
     21 C          62.0695   87.7076   11.0687 C.3     1  UNL1        0.0446
     22 C          61.2604   87.2343    9.8976 C.ar    1  UNL1       -0.0199
     23 C          59.8280   87.6563    9.7559 C.ar    1  UNL1       -0.0042
     24 C          59.0189   87.1830    8.5849 C.ar    1  UNL1        0.0004
     25 C          59.6423   86.2876    7.5555 C.ar    1  UNL1        0.0103
     26 C          61.0747   85.8655    7.6972 C.ar    1  UNL1        0.0681
     27 C          61.8838   86.3389    8.8682 C.ar    1  UNL1        0.0061
     28 C          61.6981   84.9701    6.6677 C.1     1  UNL1        0.1004
     29 N          62.3214   84.0747    5.6383 N.1     1  UNL1       -0.1908
     30 C          63.2090   86.8759   11.5783 C.3     1  UNL1        0.0323
     31 C          62.9394   85.5467   12.2192 C.ar    1  UNL1       -0.0218
     32 C          62.8018   84.3184   11.3693 C.ar    1  UNL1       -0.0034
     33 C          62.5322   82.9893   12.0101 C.ar    1  UNL1        0.0111
     34 C          62.4003   82.8884   13.5008 C.ar    1  UNL1        0.0577
     35 CL         62.1307   81.5593   14.1417 Cl      1  UNL1       -0.0822
     36 C          62.5379   84.1167   14.3508 C.ar    1  UNL1        0.0111
     37 C          62.8075   85.4459   13.7099 C.ar    1  UNL1       -0.0034
@<TRIPOS>BOND
     1     2     1    1
     2     2     3    1
     3     3     4   am
     4     4     5    2
     5     4     7    1
     6     7     8    1
     7     7     9    1
     8     7    10    1
     9    10    11    1
    10    11    12   ar
    11    12    13   ar
    12    13    14   ar
    13    14    17    1
    14    17    18    1
    15    17    19    1
    16    17    20    1
    17    14    15   ar
    18    15    16   ar
    19     2    21    1
    20    21    30    1
    21    30    31    1
    22    31    32   ar
    23    32    33   ar
    24    33    34   ar
    25    34    35    1
    26    34    36   ar
    27    36    37   ar
    28    21    22    1
    29    22    23   ar
    30    23    24   ar
    31    24    25   ar
    32    25    26   ar
    33    26    28    1
    34    28    29    3
    35    26    27   ar
    36    16    11   ar
    37    37    31   ar
    38    27    22   ar
    39     3     6    1
@<TRIPOS>MOLECULE
*****
 37 39 0 0 0
SMALL
GASTEIGER

@<TRIPOS>ATOM
      1 C          61.3469   89.6270   13.2680 C.3     1  UNL1        0.0216
      2 C          62.5917   89.2744   12.5089 C.3     1  UNL1        0.0760
      3 N          63.2023   87.9128   12.6606 N.am    1  UNL1       -0.3028
      4 C          63.6869   87.4535   14.0038 C.2     1  UNL1        0.2587
      5 O          63.5609   88.3559   15.1953 O.2     1  UNL1       -0.2714
      6 H          63.2850   87.3205   11.8785 H       1  UNL1        0.1495
      7 C          64.2975   86.0918   14.1555 C.3     1  UNL1        0.2022
      8 C          63.4118   85.5729   13.0618 C.3     1  UNL1        0.0532
      9 C          65.1833   86.6108   15.2491 C.3     1  UNL1        0.0532
     10 O          64.9081   84.7302   14.3071 O.3     1  UNL1       -0.4586
     11 C          64.3939   83.5823   13.4897 C.ar    1  UNL1        0.2251
     12 C          64.7032   83.5075   12.0238 C.ar    1  UNL1        0.0577
     13 C          64.1889   82.3597   11.2065 C.ar    1  UNL1        0.0102
     14 C          63.3654   81.2867   11.8550 C.ar    1  UNL1        0.0907
     15 C          63.0561   81.3616   13.3208 C.ar    1  UNL1        0.1059
     16 N          63.5703   82.5093   14.1381 N.ar    1  UNL1       -0.2102
     17 C          62.8511   80.1389   11.0376 C.3     1  UNL1        0.4200
     18 F          62.3369   78.9912   10.2201 F       1  UNL1       -0.1658
     19 F          62.4620   79.4183   12.2942 F       1  UNL1       -0.1658
     20 F          63.2403   80.8595    9.7809 F       1  UNL1       -0.1658
     21 C          63.2259   90.2835   11.5981 C.3     1  UNL1        0.0446
     22 C          64.3181   91.1747   12.1107 C.ar    1  UNL1       -0.0199
     23 C          64.8145   91.0194   13.5177 C.ar    1  UNL1       -0.0042
     24 C          65.9067   91.9105   14.0303 C.ar    1  UNL1        0.0004
     25 C          66.5026   92.9569   13.1360 C.ar    1  UNL1        0.0103
     26 C          66.0063   93.1122   11.7291 C.ar    1  UNL1        0.0681
     27 C          64.9141   92.2211   11.2164 C.ar    1  UNL1        0.0061
     28 C          66.6023   94.1587   10.8347 C.1     1  UNL1        0.1004
     29 N          67.1982   95.2052    9.9404 N.1     1  UNL1       -0.1908
     30 C          62.7678   90.4014   10.1746 C.3     1  UNL1        0.0323
     31 C          61.9029   89.3330    9.5741 C.ar    1  UNL1       -0.0218
     32 C          62.3679   87.9069    9.5682 C.ar    1  UNL1       -0.0034
     33 C          61.5030   86.8385    8.9678 C.ar    1  UNL1        0.0111
     34 C          60.1732   87.1962    8.3732 C.ar    1  UNL1        0.0577
     35 CL         59.3083   86.1278    7.7727 Cl      1  UNL1       -0.0822
     36 C          59.7082   88.6223    8.3791 C.ar    1  UNL1        0.0111
     37 C          60.5730   89.6907    8.9795 C.ar    1  UNL1       -0.0034
@<TRIPOS>BOND
     1     2     1    1
     2     2     3    1
     3     3     4   am
     4     4     5    2
     5     4     7    1
     6     7     8    1
     7     7     9    1
     8     7    10    1
     9    10    11    1
    10    11    12   ar
    11    12    13   ar
    12    13    14   ar
    13    14    17    1
    14    17    18    1
    15    17    19    1
    16    17    20    1
    17    14    15   ar
    18    15    16   ar
    19     2    21    1
    20    21    30    1
    21    30    31    1
    22    31    32   ar
    23    32    33   ar
    24    33    34   ar
    25    34    35    1
    26    34    36   ar
    27    36    37   ar
    28    21    22    1
    29    22    23   ar
    30    23    24   ar
    31    24    25   ar
    32    25    26   ar
    33    26    28    1
    34    28    29    3
    35    26    27   ar
    36    16    11   ar
    37    37    31   ar
    38    27    22   ar
    39     3     6    1
@<TRIPOS>MOLECULE
*****
 37 39 0 0 0
SMALL
GASTEIGER

@<TRIPOS>ATOM
      1 C          64.1762   91.4568   12.1874 C.3     1  UNL1        0.0216
      2 C          63.6131   90.3349   13.0085 C.3     1  UNL1        0.0760
      3 N          62.7530   89.2901   12.3614 N.am    1  UNL1       -0.3028
      4 C          61.5310   89.6959   11.5920 C.2     1  UNL1        0.2587
      5 O          61.1690   91.1464   11.4696 O.2     1  UNL1       -0.2714
      6 H          62.9906   88.3381   12.4417 H       1  UNL1        0.1495
      7 C          60.6709   88.6510   10.9449 C.3     1  UNL1        0.2022
      8 C          60.2218   89.6534    9.9234 C.3     1  UNL1        0.0532
      9 C          61.1200   87.6486   11.9663 C.3     1  UNL1        0.0532
     10 O          59.8109   87.6063   10.2977 O.3     1  UNL1       -0.4586
     11 C          60.3636   86.7618    9.1880 C.ar    1  UNL1        0.2251
     12 C          61.7932   86.3096    9.2303 C.ar    1  UNL1        0.0577
     13 C          62.3459   85.4652    8.1207 C.ar    1  UNL1        0.0102
     14 C          61.4690   85.0729    6.9686 C.ar    1  UNL1        0.0907
     15 C          60.0394   85.5251    6.9263 C.ar    1  UNL1        0.1059
     16 N          59.4867   86.3695    8.0360 N.ar    1  UNL1       -0.2102
     17 C          62.0217   84.2285    5.8589 C.3     1  UNL1        0.4200
     18 F          62.5744   83.3840    4.7493 F       1  UNL1       -0.1658
     19 F          60.6494   83.6874    5.5871 F       1  UNL1       -0.1658
     20 F          63.3940   84.7695    6.1307 F       1  UNL1       -0.1658
     21 C          63.9100   90.2578   14.4768 C.3     1  UNL1        0.0446
     22 C          63.7591   88.9551   15.2051 C.ar    1  UNL1       -0.0199
     23 C          63.1264   88.9250   16.5648 C.ar    1  UNL1       -0.0042
     24 C          62.9755   87.6224   17.2932 C.ar    1  UNL1        0.0004
     25 C          63.4572   86.3500   16.6617 C.ar    1  UNL1        0.0103
     26 C          64.0899   86.3801   15.3020 C.ar    1  UNL1        0.0681
     27 C          64.2408   87.6826   14.5737 C.ar    1  UNL1        0.0061
     28 C          64.5716   85.1075   14.6706 C.1     1  UNL1        0.1004
     29 N          65.0533   83.8350   14.0393 N.1     1  UNL1       -0.1908
     30 C          64.3578   91.4832   15.2168 C.3     1  UNL1        0.0323
     31 C          65.8001   91.8941   15.1837 C.ar    1  UNL1       -0.0218
     32 C          66.3612   92.7507   16.2799 C.ar    1  UNL1       -0.0034
     33 C          67.8035   93.1616   16.2468 C.ar    1  UNL1        0.0111
     34 C          68.6845   92.7159   15.1177 C.ar    1  UNL1        0.0577
     35 CL         70.1268   93.1268   15.0846 Cl      1  UNL1       -0.0822
     36 C          68.1234   91.8594   14.0216 C.ar    1  UNL1        0.0111
     37 C          66.6812   91.4485   14.0546 C.ar    1  UNL1       -0.0034
@<TRIPOS>BOND
     1     2     1    1
     2     2     3    1
     3     3     4   am
     4     4     5    2
     5     4     7    1
     6     7     8    1
     7     7     9    1
     8     7    10    1
     9    10    11    1
    10    11    12   ar
    11    12    13   ar
    12    13    14   ar
    13    14    17    1
    14    17    18    1
    15    17    19    1
    16    17    20    1
    17    14    15   ar
    18    15    16   ar
    19     2    21    1
    20    21    30    1
    21    30    31    1
    22    31    32   ar
    23    32    33   ar
    24    33    34   ar
    25    34    35    1
    26    34    36   ar
    27    36    37   ar
    28    21    22    1
    29    22    23   ar
    30    23    24   ar
    31    24    25   ar
    32    25    26   ar
    33    26    28    1
    34    28    29    3
    35    26    27   ar
    36    16    11   ar
    37    37    31   ar
    38    27    22   ar
    39     3     6    1
@<TRIPOS>MOLECULE
*****
 37 39 0 0 0
SMALL
GASTEIGER

@<TRIPOS>ATOM
      1 C          61.6709   85.9658   10.9558 C.3     1  UNL1        0.0216
      2 C          62.7448   86.2802   11.9548 C.3     1  UNL1        0.0760
      3 N          63.0886   87.7075   12.2622 N.am    1  UNL1       -0.3028
      4 C          62.7889   88.7836   11.2610 C.2     1  UNL1        0.2587
      5 O          62.1454   88.4323    9.9524 O.2     1  UNL1       -0.2714
      6 H          63.5109   87.9381   13.1211 H       1  UNL1        0.1495
      7 C          63.1326   90.2109   11.5685 C.3     1  UNL1        0.2022
      8 C          63.4155   89.8359   12.9931 C.3     1  UNL1        0.0532
      9 C          62.8498   90.5860   10.1440 C.3     1  UNL1        0.0532
     10 O          63.4764   91.6382   11.8761 O.3     1  UNL1       -0.4586
     11 C          64.6508   91.9544   12.7541 C.ar    1  UNL1        0.2251
     12 C          65.9496   92.3883   12.1420 C.ar    1  UNL1        0.0577
     13 C          67.1240   92.7044   13.0200 C.ar    1  UNL1        0.0102
     14 C          66.9994   92.5867   14.5102 C.ar    1  UNL1        0.0907
     15 C          65.7006   92.1528   15.1223 C.ar    1  UNL1        0.1059
     16 N          64.5263   91.8367   14.2443 N.ar    1  UNL1       -0.2102
     17 C          68.1738   92.9029   15.3883 C.3     1  UNL1        0.4200
     18 F          69.3482   93.2190   16.2662 F       1  UNL1       -0.1658
     19 F          67.2409   93.3270   16.4835 F       1  UNL1       -0.1658
     20 F          69.1068   92.4787   14.2930 F       1  UNL1       -0.1658
     21 C          63.4750   85.1673   12.6463 C.3     1  UNL1        0.0446
     22 C          63.2413   83.7450   12.2308 C.ar    1  UNL1       -0.0199
     23 C          63.8719   83.2168   10.9765 C.ar    1  UNL1       -0.0042
     24 C          63.6383   81.7946   10.5610 C.ar    1  UNL1        0.0004
     25 C          62.7741   80.9005   11.3999 C.ar    1  UNL1        0.0103
     26 C          62.1435   81.4287   12.6543 C.ar    1  UNL1        0.0681
     27 C          62.3771   82.8509   13.0697 C.ar    1  UNL1        0.0061
     28 C          61.2793   80.5346   13.4932 C.1     1  UNL1        0.1004
     29 N          60.4152   79.6405   14.3321 N.1     1  UNL1       -0.1908
     30 C          64.4388   85.4766   13.7532 C.3     1  UNL1        0.0323
     31 C          63.9265   85.9168   15.0926 C.ar    1  UNL1       -0.0218
     32 C          63.3595   84.9082   16.0472 C.ar    1  UNL1       -0.0034
     33 C          62.8472   85.3484   17.3865 C.ar    1  UNL1        0.0111
     34 C          62.9019   86.7971   17.7712 C.ar    1  UNL1        0.0577
     35 CL         62.3896   87.2374   19.1105 Cl      1  UNL1       -0.0822
     36 C          63.4688   87.8057   16.8166 C.ar    1  UNL1        0.0111
     37 C          63.9811   87.3656   15.4773 C.ar    1  UNL1       -0.0034
@<TRIPOS>BOND
     1     2     1    1
     2     2     3    1
     3     3     4   am
     4     4     5    2
     5     4     7    1
     6     7     8    1
     7     7     9    1
     8     7    10    1
     9    10    11    1
    10    11    12   ar
    11    12    13   ar
    12    13    14   ar
    13    14    17    1
    14    17    18    1
    15    17    19    1
    16    17    20    1
    17    14    15   ar
    18    15    16   ar
    19     2    21    1
    20    21    30    1
    21    30    31    1
    22    31    32   ar
    23    32    33   ar
    24    33    34   ar
    25    34    35    1
    26    34    36   ar
    27    36    37   ar
    28    21    22    1
    29    22    23   ar
    30    23    24   ar
    31    24    25   ar
    32    25    26   ar
    33    26    28    1
    34    28    29    3
    35    26    27   ar
    36    16    11   ar
    37    37    31   ar
    38    27    22   ar
    39     3     6    1
