@<TRIPOS>MOLECULE
*****
 31 34 0 0 0
SMALL
GASTEIGER

@<TRIPOS>ATOM
      1 C          61.0224   87.0274    9.5166 C.ar    1  UNL1        0.1295
      2 C          60.2046   86.4836    8.3827 C.ar    1  UNL1        0.0216
      3 C          59.5416   87.4222    7.4187 C.ar    1  UNL1        0.0178
      4 C          59.6963   88.9045    7.5884 C.ar    1  UNL1        0.0789
      5 N          60.5141   89.4483    8.7222 N.ar    1  UNL1       -0.2451
      6 C          61.1772   88.5097    9.6863 C.ar    1  UNL1        0.1172
      7 S          61.6855   86.0888   10.4806 S.O2    1  UNL1        0.0319
      8 O          60.9171   86.7069   11.6109 O.2     1  UNL1       -0.1641
      9 O          62.4539   85.4707    9.3504 O.2     1  UNL1       -0.1641
     10 N          63.1277   83.1213   12.5250 N.ar    1  UNL1       -0.2500
     11 C          62.3480   83.6527   11.3590 C.ar    1  UNL1        0.1153
     12 C          62.3485   85.1503   11.4447 C.ar    1  UNL1        0.1498
     13 C          63.1285   85.5445   12.6638 C.ar    1  UNL1        0.1404
     14 N          63.6101   84.2906   13.3315 N.ar    1  UNL1       -0.1663
     15 C          62.7670   80.6084   11.9729 C.3     1  UNL1        0.0263
     16 C          63.3805   81.6748   12.8310 C.3     1  UNL1        0.1054
     17 C          64.2469   81.2947   13.9949 C.3     1  UNL1        0.0263
     18 C          59.0332   89.8431    6.6243 C.3     1  UNL1        0.1361
     19 N          59.8491   90.5446    5.5792 N.am    1  UNL1       -0.2931
     20 C          59.2360   91.6419    4.7606 C.2     1  UNL1        0.2809
     21 O          57.8071   92.0377    4.9872 O.2     1  UNL1       -0.2668
     22 H          60.7870   90.2848    5.4305 H       1  UNL1        0.1502
     23 C          60.0519   92.3434    3.7155 C.ar    1  UNL1        0.1984
     24 C          61.4614   92.0091    3.3261 C.ar    1  UNL1        0.0453
     25 C          61.8822   92.9614    2.2462 C.ar    1  UNL1        0.0409
     26 C          63.1634   93.1075    1.4801 C.ar    1  UNL1        0.0238
     27 C          63.2953   94.1764    0.4361 C.ar    1  UNL1        0.0991
     28 N          62.1459   95.0993    0.1582 N.ar    1  UNL1       -0.2391
     29 C          60.8646   94.9532    0.9243 C.ar    1  UNL1        0.1362
     30 C          60.7327   93.8843    1.9683 C.ar    1  UNL1        0.1646
     31 O          59.6016   93.5023    2.8764 O.2     1  UNL1       -0.4473
@<TRIPOS>BOND
     1    15    16    1
     2    16    17    1
     3    16    10    1
     4    10    11   ar
     5    11    12   ar
     6    12     7    1
     7     7     8    2
     8     7     9    2
     9     7     1    1
    10     1     2   ar
    11     2     3   ar
    12     3     4   ar
    13     4    18    1
    14    18    19    1
    15    19    20   am
    16    20    21    2
    17    20    23    1
    18    23    24   ar
    19    24    25   ar
    20    25    26   ar
    21    26    27   ar
    22    27    28   ar
    23    28    29   ar
    24    29    30   ar
    25    30    31   ar
    26     4     5   ar
    27     5     6   ar
    28    12    13   ar
    29    13    14   ar
    30    14    10   ar
    31     6     1   ar
    32    31    23   ar
    33    30    25   ar
    34    19    22    1
@<TRIPOS>MOLECULE
*****
 31 34 0 0 0
SMALL
GASTEIGER

@<TRIPOS>ATOM
      1 C          60.9855   87.1143    9.4223 C.ar    1  UNL1        0.1295
      2 C          60.1336   86.5513    8.3234 C.ar    1  UNL1        0.0216
      3 C          59.4610   87.4724    7.3492 C.ar    1  UNL1        0.0178
      4 C          59.6401   88.9565    7.4739 C.ar    1  UNL1        0.0789
      5 N          60.4919   89.5194    8.5727 N.ar    1  UNL1       -0.2451
      6 C          61.1646   88.5983    9.5469 C.ar    1  UNL1        0.1172
      7 S          61.6582   86.1932   10.3965 S.O2    1  UNL1        0.0319
      8 O          60.9265   86.8543   11.5268 O.2     1  UNL1       -0.1641
      9 O          62.3898   85.5321    9.2662 O.2     1  UNL1       -0.1641
     10 N          63.4189   84.4162   13.3642 N.ar    1  UNL1       -0.2500
     11 C          62.8118   85.6392   12.7432 C.ar    1  UNL1        0.1153
     12 C          62.3308   85.2721   11.3707 C.ar    1  UNL1        0.1498
     13 C          62.6406   83.8222   11.1434 C.ar    1  UNL1        0.1404
     14 N          63.3131   83.2932   12.3754 N.ar    1  UNL1       -0.1663
     15 C          64.3942   85.5849   15.4697 C.3     1  UNL1        0.0263
     16 C          64.0252   84.3311   14.7335 C.3     1  UNL1        0.1054
     17 C          64.2627   82.9923   15.3667 C.3     1  UNL1        0.0263
     18 C          58.9674   89.8775    6.4996 C.3     1  UNL1        0.1361
     19 N          59.7786   90.5897    5.4581 N.am    1  UNL1       -0.2931
     20 C          59.1621   91.6960    4.6542 C.2     1  UNL1        0.2809
     21 O          57.7345   92.0900    4.8919 O.2     1  UNL1       -0.2668
     22 H          60.7156   90.3311    5.3021 H       1  UNL1        0.1502
     23 C          59.9733   92.4082    3.6127 C.ar    1  UNL1        0.1984
     24 C          61.4005   92.1165    3.2551 C.ar    1  UNL1        0.0453
     25 C          61.8090   93.0651    2.1673 C.ar    1  UNL1        0.0409
     26 C          63.0989   93.2429    1.4227 C.ar    1  UNL1        0.0238
     27 C          63.2140   94.2987    0.3634 C.ar    1  UNL1        0.0991
     28 N          62.0392   95.1767    0.0488 N.ar    1  UNL1       -0.2391
     29 C          60.7494   94.9989    0.7935 C.ar    1  UNL1        0.1362
     30 C          60.6343   93.9432    1.8527 C.ar    1  UNL1        0.1646
     31 O          59.4997   93.5371    2.7460 O.2     1  UNL1       -0.4473
@<TRIPOS>BOND
     1    15    16    1
     2    16    17    1
     3    16    10    1
     4    10    11   ar
     5    11    12   ar
     6    12     7    1
     7     7     8    2
     8     7     9    2
     9     7     1    1
    10     1     2   ar
    11     2     3   ar
    12     3     4   ar
    13     4    18    1
    14    18    19    1
    15    19    20   am
    16    20    21    2
    17    20    23    1
    18    23    24   ar
    19    24    25   ar
    20    25    26   ar
    21    26    27   ar
    22    27    28   ar
    23    28    29   ar
    24    29    30   ar
    25    30    31   ar
    26     4     5   ar
    27     5     6   ar
    28    12    13   ar
    29    13    14   ar
    30    14    10   ar
    31     6     1   ar
    32    31    23   ar
    33    30    25   ar
    34    19    22    1
@<TRIPOS>MOLECULE
*****
 31 34 0 0 0
SMALL
GASTEIGER

@<TRIPOS>ATOM
      1 C          64.7211   91.0712   14.2577 C.ar    1  UNL1        0.1295
      2 C          64.6679   89.6582   13.7568 C.ar    1  UNL1        0.0216
      3 C          64.1000   88.5754   14.6257 C.ar    1  UNL1        0.0178
      4 C          63.5853   88.9054   15.9954 C.ar    1  UNL1        0.0789
      5 N          63.6385   90.3183   16.4963 N.ar    1  UNL1       -0.2451
      6 C          64.2064   91.4012   15.6274 C.ar    1  UNL1        0.1172
      7 S          65.2890   92.1540   13.3888 S.O2    1  UNL1        0.0319
      8 O          64.7312   91.4723   12.1747 O.2     1  UNL1       -0.1641
      9 O          65.8468   92.8357   14.6030 O.2     1  UNL1       -0.1641
     10 N          66.7257   94.4354   10.5967 N.ar    1  UNL1       -0.2500
     11 C          66.1825   93.1165   11.0607 C.ar    1  UNL1        0.1153
     12 C          65.8568   93.2368   12.5200 C.ar    1  UNL1        0.1498
     13 C          66.1987   94.6301   12.9578 C.ar    1  UNL1        0.1404
     14 N          66.7357   95.3709   11.7692 N.ar    1  UNL1       -0.1663
     15 C          68.0059   93.7747    8.4345 C.3     1  UNL1        0.0263
     16 C          67.1793   94.7615    9.2046 C.3     1  UNL1        0.1054
     17 C          66.8063   96.0744    8.5825 C.3     1  UNL1        0.0263
     18 C          63.0174   87.8225   16.8643 C.3     1  UNL1        0.1361
     19 N          62.6369   86.5016   16.2640 N.am    1  UNL1       -0.2931
     20 C          63.6884   85.6266   15.6488 C.2     1  UNL1        0.2809
     21 O          65.1205   86.0725   15.6339 O.2     1  UNL1       -0.2668
     22 H          61.6969   86.2090   16.2738 H       1  UNL1        0.1502
     23 C          63.3079   84.3056   15.0486 C.ar    1  UNL1        0.1984
     24 C          64.1355   83.5015   14.0902 C.ar    1  UNL1        0.0453
     25 C          63.3720   82.2558   13.7506 C.ar    1  UNL1        0.0409
     26 C          63.6922   81.0947   12.8565 C.ar    1  UNL1        0.0238
     27 C          62.7129   79.9679   12.7109 C.ar    1  UNL1        0.0991
     28 N          61.4134   80.0022   13.4594 N.ar    1  UNL1       -0.2391
     29 C          61.0932   81.1632   14.3534 C.ar    1  UNL1        0.1362
     30 C          62.0725   82.2900   14.4990 C.ar    1  UNL1        0.1646
     31 O          62.0329   83.5569   15.3012 O.2     1  UNL1       -0.4473
@<TRIPOS>BOND
     1    15    16    1
     2    16    17    1
     3    16    10    1
     4    10    11   ar
     5    11    12   ar
     6    12     7    1
     7     7     8    2
     8     7     9    2
     9     7     1    1
    10     1     2   ar
    11     2     3   ar
    12     3     4   ar
    13     4    18    1
    14    18    19    1
    15    19    20   am
    16    20    21    2
    17    20    23    1
    18    23    24   ar
    19    24    25   ar
    20    25    26   ar
    21    26    27   ar
    22    27    28   ar
    23    28    29   ar
    24    29    30   ar
    25    30    31   ar
    26     4     5   ar
    27     5     6   ar
    28    12    13   ar
    29    13    14   ar
    30    14    10   ar
    31     6     1   ar
    32    31    23   ar
    33    30    25   ar
    34    19    22    1
@<TRIPOS>MOLECULE
*****
 31 34 0 0 0
SMALL
GASTEIGER

@<TRIPOS>ATOM
      1 C          60.8470   92.5595    2.9426 C.ar    1  UNL1        0.1295
      2 C          59.3938   92.7265    3.2748 C.ar    1  UNL1        0.0216
      3 C          58.7820   91.9271    4.3869 C.ar    1  UNL1        0.0178
      4 C          59.6234   90.9607    5.1667 C.ar    1  UNL1        0.0789
      5 N          61.0765   90.7937    4.8346 N.ar    1  UNL1       -0.2451
      6 C          61.6884   91.5931    3.7225 C.ar    1  UNL1        0.1172
      7 S          61.4588   93.3589    1.8306 S.O2    1  UNL1        0.0319
      8 O          62.5881   92.3754    1.7449 O.2     1  UNL1       -0.1641
      9 O          60.3295   94.3424    1.9163 O.2     1  UNL1       -0.1641
     10 N          63.2353   94.7545   -1.3256 N.ar    1  UNL1       -0.2500
     11 C          62.7914   93.6025   -0.4737 C.ar    1  UNL1        0.1153
     12 C          62.0706   94.1583    0.7185 C.ar    1  UNL1        0.1498
     13 C          62.0690   95.6538    0.6035 C.ar    1  UNL1        0.1404
     14 N          62.7888   96.0224   -0.6598 N.ar    1  UNL1       -0.1663
     15 C          63.9018   93.4097   -3.4463 C.3     1  UNL1        0.0263
     16 C          63.9927   94.6560   -2.6166 C.3     1  UNL1        0.1054
     17 C          64.8410   95.8038   -3.0779 C.3     1  UNL1        0.0263
     18 C          59.0115   90.1613    6.2788 C.3     1  UNL1        0.1361
     19 N          59.8650   89.6820    7.4155 N.am    1  UNL1       -0.2931
     20 C          59.6680   88.3030    7.9716 C.2     1  UNL1        0.2809
     21 O          58.6175   87.4032    7.3911 O.2     1  UNL1       -0.2668
     22 H          60.5544   90.2726    7.7964 H       1  UNL1        0.1502
     23 C          60.5214   87.8237    9.1082 C.ar    1  UNL1        0.1984
     24 C          60.7393   86.3937    9.5052 C.ar    1  UNL1        0.0453
     25 C          61.6594   86.3764   10.6898 C.ar    1  UNL1        0.0409
     26 C          62.2231   85.2517   11.5065 C.ar    1  UNL1        0.0238
     27 C          63.1375   85.5463   12.6584 C.ar    1  UNL1        0.0991
     28 N          63.4882   86.9657   12.9936 N.ar    1  UNL1       -0.2391
     29 C          62.9245   88.0905   12.1769 C.ar    1  UNL1        0.1362
     30 C          62.0101   87.7958   11.0250 C.ar    1  UNL1        0.1646
     31 O          61.3068   88.6903   10.0475 O.2     1  UNL1       -0.4473
@<TRIPOS>BOND
     1    15    16    1
     2    16    17    1
     3    16    10    1
     4    10    11   ar
     5    11    12   ar
     6    12     7    1
     7     7     8    2
     8     7     9    2
     9     7     1    1
    10     1     2   ar
    11     2     3   ar
    12     3     4   ar
    13     4    18    1
    14    18    19    1
    15    19    20   am
    16    20    21    2
    17    20    23    1
    18    23    24   ar
    19    24    25   ar
    20    25    26   ar
    21    26    27   ar
    22    27    28   ar
    23    28    29   ar
    24    29    30   ar
    25    30    31   ar
    26     4     5   ar
    27     5     6   ar
    28    12    13   ar
    29    13    14   ar
    30    14    10   ar
    31     6     1   ar
    32    31    23   ar
    33    30    25   ar
    34    19    22    1
@<TRIPOS>MOLECULE
*****
 31 34 0 0 0
SMALL
GASTEIGER

@<TRIPOS>ATOM
      1 C          61.7104   93.3276    0.6068 C.ar    1  UNL1        0.1295
      2 C          62.3559   92.7075    1.8104 C.ar    1  UNL1        0.0216
      3 C          61.5240   92.3461    3.0051 C.ar    1  UNL1        0.0178
      4 C          60.0465   92.6047    2.9961 C.ar    1  UNL1        0.0789
      5 N          59.4009   93.2248    1.7926 N.ar    1  UNL1       -0.2451
      6 C          60.2329   93.5863    0.5978 C.ar    1  UNL1        0.1172
      7 S          62.5423   93.6890   -0.5879 S.O2    1  UNL1        0.0319
      8 O          61.2947   93.8872   -1.3967 O.2     1  UNL1       -0.1641
      9 O          63.7899   93.4909    0.2210 O.2     1  UNL1       -0.1641
     10 N          64.4707   93.9561   -3.9457 N.ar    1  UNL1       -0.2500
     11 C          63.5659   93.2103   -3.0103 C.ar    1  UNL1        0.1153
     12 C          63.3742   94.0505   -1.7825 C.ar    1  UNL1        0.1498
     13 C          64.1605   95.3156   -1.9592 C.ar    1  UNL1        0.1404
     14 N          64.8382   95.2573   -3.2961 N.ar    1  UNL1       -0.1663
     15 C          65.6290   94.4305   -6.2224 C.3     1  UNL1        0.0263
     16 C          64.9278   93.4837   -5.2940 C.3     1  UNL1        0.1054
     17 C          64.6836   92.0646   -5.7140 C.3     1  UNL1        0.0263
     18 C          59.2146   92.2432    4.1909 C.3     1  UNL1        0.1361
     19 N          59.7739   91.3379    5.2481 N.am    1  UNL1       -0.2931
     20 C          58.8536   90.4784    6.0630 C.2     1  UNL1        0.2809
     21 O          57.3740   90.5242    5.8208 O.2     1  UNL1       -0.2668
     22 H          60.7450   91.3079    5.4070 H       1  UNL1        0.1502
     23 C          59.4129   89.5731    7.1202 C.ar    1  UNL1        0.1984
     24 C          59.5282   88.0802    7.0317 C.ar    1  UNL1        0.0453
     25 C          60.1416   87.5861    8.3083 C.ar    1  UNL1        0.0409
     26 C          60.4941   86.2083    8.7851 C.ar    1  UNL1        0.0238
     27 C          61.1103   86.0181   10.1393 C.ar    1  UNL1        0.0991
     28 N          61.3741   87.2057   11.0168 N.ar    1  UNL1       -0.2391
     29 C          61.0216   88.5835   10.5400 C.ar    1  UNL1        0.1362
     30 C          60.4054   88.7737    9.1858 C.ar    1  UNL1        0.1646
     31 O          59.9550   90.0017    8.4515 O.2     1  UNL1       -0.4473
@<TRIPOS>BOND
     1    15    16    1
     2    16    17    1
     3    16    10    1
     4    10    11   ar
     5    11    12   ar
     6    12     7    1
     7     7     8    2
     8     7     9    2
     9     7     1    1
    10     1     2   ar
    11     2     3   ar
    12     3     4   ar
    13     4    18    1
    14    18    19    1
    15    19    20   am
    16    20    21    2
    17    20    23    1
    18    23    24   ar
    19    24    25   ar
    20    25    26   ar
    21    26    27   ar
    22    27    28   ar
    23    28    29   ar
    24    29    30   ar
    25    30    31   ar
    26     4     5   ar
    27     5     6   ar
    28    12    13   ar
    29    13    14   ar
    30    14    10   ar
    31     6     1   ar
    32    31    23   ar
    33    30    25   ar
    34    19    22    1
@<TRIPOS>MOLECULE
*****
 31 34 0 0 0
SMALL
GASTEIGER

@<TRIPOS>ATOM
      1 C          60.2717   92.1046    3.7069 C.ar    1  UNL1        0.1295
      2 C          61.1819   91.1857    4.4666 C.ar    1  UNL1        0.0216
      3 C          60.6306   90.3192    5.5599 C.ar    1  UNL1        0.0178
      4 C          59.1692   90.3716    5.8935 C.ar    1  UNL1        0.0789
      5 N          58.2590   91.2905    5.1338 N.ar    1  UNL1       -0.2451
      6 C          58.8102   92.1571    4.0405 C.ar    1  UNL1        0.1172
      7 S          60.8230   92.9711    2.6136 S.O2    1  UNL1        0.0319
      8 O          62.2076   92.4878    2.9288 O.2     1  UNL1       -0.1641
      9 O          59.4385   93.4544    2.2985 O.2     1  UNL1       -0.1641
     10 N          62.6036   94.5850   -0.4343 N.ar    1  UNL1       -0.2500
     11 C          62.3147   93.3989    0.4372 C.ar    1  UNL1        0.1153
     12 C          61.3743   93.8375    1.5204 C.ar    1  UNL1        0.1498
     13 C          61.0821   95.2948    1.3183 C.ar    1  UNL1        0.1404
     14 N          61.8418   95.7568    0.1103 N.ar    1  UNL1       -0.1663
     15 C          64.4338   95.7468   -1.8663 C.3     1  UNL1        0.0263
     16 C          63.4974   94.5973   -1.6389 C.3     1  UNL1        0.1054
     17 C          63.4549   93.4601   -2.6160 C.3     1  UNL1        0.0263
     18 C          58.6179   89.5051    6.9868 C.3     1  UNL1        0.1361
     19 N          59.4319   88.3648    7.5225 N.am    1  UNL1       -0.2931
     20 C          60.1298   88.4969    8.8436 C.2     1  UNL1        0.2809
     21 O          60.0135   89.7695    9.6291 O.2     1  UNL1       -0.2668
     22 H          59.5082   87.5295    7.0069 H       1  UNL1        0.1502
     23 C          60.9438   87.3566    9.3792 C.ar    1  UNL1        0.1984
     24 C          61.8226   86.4460    8.5740 C.ar    1  UNL1        0.0453
     25 C          62.4440   85.4532    9.5113 C.ar    1  UNL1        0.0409
     26 C          63.3963   84.3171    9.2829 C.ar    1  UNL1        0.0238
     27 C          63.8539   83.4781   10.4390 C.ar    1  UNL1        0.0991
     28 N          63.3591   83.7752   11.8235 N.ar    1  UNL1       -0.2391
     29 C          62.4067   84.9112   12.0519 C.ar    1  UNL1        0.1362
     30 C          61.9491   85.7503   10.8958 C.ar    1  UNL1        0.1646
     31 O          61.0220   86.9266   10.8142 O.2     1  UNL1       -0.4473
@<TRIPOS>BOND
     1    15    16    1
     2    16    17    1
     3    16    10    1
     4    10    11   ar
     5    11    12   ar
     6    12     7    1
     7     7     8    2
     8     7     9    2
     9     7     1    1
    10     1     2   ar
    11     2     3   ar
    12     3     4   ar
    13     4    18    1
    14    18    19    1
    15    19    20   am
    16    20    21    2
    17    20    23    1
    18    23    24   ar
    19    24    25   ar
    20    25    26   ar
    21    26    27   ar
    22    27    28   ar
    23    28    29   ar
    24    29    30   ar
    25    30    31   ar
    26     4     5   ar
    27     5     6   ar
    28    12    13   ar
    29    13    14   ar
    30    14    10   ar
    31     6     1   ar
    32    31    23   ar
    33    30    25   ar
    34    19    22    1
@<TRIPOS>MOLECULE
*****
 31 34 0 0 0
SMALL
GASTEIGER

@<TRIPOS>ATOM
      1 C          60.9702   87.2694    9.3384 C.ar    1  UNL1        0.1295
      2 C          60.9649   88.7530    9.5598 C.ar    1  UNL1        0.0216
      3 C          60.3117   89.6585    8.5582 C.ar    1  UNL1        0.0178
      4 C          59.6638   89.0805    7.3350 C.ar    1  UNL1        0.0789
      5 N          59.6692   87.5969    7.1135 N.ar    1  UNL1       -0.2451
      6 C          60.3224   86.6914    8.1152 C.ar    1  UNL1        0.1172
      7 S          61.6234   86.3639   10.3401 S.O2    1  UNL1        0.0319
      8 O          62.3713   87.5330   10.9091 O.2     1  UNL1       -0.1641
      9 O          60.8754   85.1949    9.7710 O.2     1  UNL1       -0.1641
     10 N          63.3205   84.6331   13.3715 N.ar    1  UNL1       -0.2500
     11 C          62.7232   85.8453   12.7205 C.ar    1  UNL1        0.1153
     12 C          62.2766   85.4585   11.3418 C.ar    1  UNL1        0.1498
     13 C          62.5977   84.0072   11.1406 C.ar    1  UNL1        0.1404
     14 N          63.2429   83.4970   12.3950 N.ar    1  UNL1       -0.1663
     15 C          64.0226   83.2466   15.4535 C.3     1  UNL1        0.0263
     16 C          63.8945   84.5683   14.7558 C.3     1  UNL1        0.1054
     17 C          64.3404   85.8251   15.4424 C.3     1  UNL1        0.0263
     18 C          59.0107   89.9860    6.3332 C.3     1  UNL1        0.1361
     19 N          59.8357   90.6450    5.2679 N.am    1  UNL1       -0.2931
     20 C          59.2732   91.7965    4.4884 C.2     1  UNL1        0.2809
     21 O          57.8855   92.2890    4.7744 O.2     1  UNL1       -0.2668
     22 H          60.7465   90.3217    5.0802 H       1  UNL1        0.1502
     23 C          60.0982   92.4554    3.4230 C.ar    1  UNL1        0.1984
     24 C          59.5872   93.3782    2.3567 C.ar    1  UNL1        0.0453
     25 C          60.7523   93.8004    1.5115 C.ar    1  UNL1        0.0409
     26 C          60.8512   94.7020    0.3169 C.ar    1  UNL1        0.0238
     27 C          62.1814   94.9417   -0.3337 C.ar    1  UNL1        0.0991
     28 N          63.4125   94.2798    0.2104 N.ar    1  UNL1       -0.2391
     29 C          63.3136   93.3782    1.4050 C.ar    1  UNL1        0.1362
     30 C          61.9835   93.1385    2.0556 C.ar    1  UNL1        0.1646
     31 O          61.5792   92.3072    3.2370 O.2     1  UNL1       -0.4473
@<TRIPOS>BOND
     1    15    16    1
     2    16    17    1
     3    16    10    1
     4    10    11   ar
     5    11    12   ar
     6    12     7    1
     7     7     8    2
     8     7     9    2
     9     7     1    1
    10     1     2   ar
    11     2     3   ar
    12     3     4   ar
    13     4    18    1
    14    18    19    1
    15    19    20   am
    16    20    21    2
    17    20    23    1
    18    23    24   ar
    19    24    25   ar
    20    25    26   ar
    21    26    27   ar
    22    27    28   ar
    23    28    29   ar
    24    29    30   ar
    25    30    31   ar
    26     4     5   ar
    27     5     6   ar
    28    12    13   ar
    29    13    14   ar
    30    14    10   ar
    31     6     1   ar
    32    31    23   ar
    33    30    25   ar
    34    19    22    1
@<TRIPOS>MOLECULE
*****
 31 34 0 0 0
SMALL
GASTEIGER

@<TRIPOS>ATOM
      1 C          60.0232   91.8928    4.0416 C.ar    1  UNL1        0.1295
      2 C          60.9947   90.9254    4.6503 C.ar    1  UNL1        0.0216
      3 C          60.5317   89.9566    5.6977 C.ar    1  UNL1        0.0178
      4 C          59.0973   89.9551    6.1364 C.ar    1  UNL1        0.0789
      5 N          58.1259   90.9225    5.5277 N.ar    1  UNL1       -0.2451
      6 C          58.5888   91.8914    4.4803 C.ar    1  UNL1        0.1172
      7 S          60.4862   92.8616    2.9942 S.O2    1  UNL1        0.0319
      8 O          59.0595   93.1719    2.6506 O.2     1  UNL1       -0.1641
      9 O          61.9130   92.5513    3.3379 O.2     1  UNL1       -0.1641
     10 N          62.3459   95.0146    0.3538 N.ar    1  UNL1       -0.2500
     11 C          62.3284   93.9037    1.3615 C.ar    1  UNL1        0.1153
     12 C          60.9492   93.8304    1.9469 C.ar    1  UNL1        0.1498
     13 C          60.1144   94.8961    1.3009 C.ar    1  UNL1        0.1404
     14 N          60.9775   95.6280    0.3164 N.ar    1  UNL1       -0.1663
     15 C          63.3659   96.5040   -1.5147 C.3     1  UNL1        0.0263
     16 C          63.5247   95.4379   -0.4715 C.3     1  UNL1        0.1054
     17 C          64.8624   94.7951   -0.2536 C.3     1  UNL1        0.0263
     18 C          58.6343   88.9863    7.1838 C.3     1  UNL1        0.1361
     19 N          59.5410   87.8799    7.6352 N.am    1  UNL1       -0.2931
     20 C          60.1247   87.9051    9.0167 C.2     1  UNL1        0.2809
     21 O          59.8017   89.0367    9.9468 O.2     1  UNL1       -0.2668
     22 H          59.7531   87.1372    7.0248 H       1  UNL1        0.1502
     23 C          61.0314   86.7987    9.4682 C.ar    1  UNL1        0.1984
     24 C          61.9780   86.0246    8.5994 C.ar    1  UNL1        0.0453
     25 C          62.6824   85.0197    9.4619 C.ar    1  UNL1        0.0409
     26 C          63.7232   83.9850    9.1519 C.ar    1  UNL1        0.0238
     27 C          64.2528   83.1034   10.2438 C.ar    1  UNL1        0.0991
     28 N          63.7416   83.2564   11.6457 N.ar    1  UNL1       -0.2391
     29 C          62.7008   84.2911   11.9557 C.ar    1  UNL1        0.1362
     30 C          62.1712   85.1727   10.8638 C.ar    1  UNL1        0.1646
     31 O          61.1508   86.2722   10.8676 O.2     1  UNL1       -0.4473
@<TRIPOS>BOND
     1    15    16    1
     2    16    17    1
     3    16    10    1
     4    10    11   ar
     5    11    12   ar
     6    12     7    1
     7     7     8    2
     8     7     9    2
     9     7     1    1
    10     1     2   ar
    11     2     3   ar
    12     3     4   ar
    13     4    18    1
    14    18    19    1
    15    19    20   am
    16    20    21    2
    17    20    23    1
    18    23    24   ar
    19    24    25   ar
    20    25    26   ar
    21    26    27   ar
    22    27    28   ar
    23    28    29   ar
    24    29    30   ar
    25    30    31   ar
    26     4     5   ar
    27     5     6   ar
    28    12    13   ar
    29    13    14   ar
    30    14    10   ar
    31     6     1   ar
    32    31    23   ar
    33    30    25   ar
    34    19    22    1
@<TRIPOS>MOLECULE
*****
 31 34 0 0 0
SMALL
GASTEIGER

@<TRIPOS>ATOM
      1 C          64.4785   89.5125   14.9699 C.ar    1  UNL1        0.1295
      2 C          65.0543   88.2229   14.4644 C.ar    1  UNL1        0.0216
      3 C          64.5337   86.9150   14.9827 C.ar    1  UNL1        0.0178
      4 C          63.4375   86.8968   16.0063 C.ar    1  UNL1        0.0789
      5 N          62.8617   88.1863   16.5117 N.ar    1  UNL1       -0.2451
      6 C          63.3822   89.4942   15.9935 C.ar    1  UNL1        0.1172
      7 S          64.9990   90.8204   14.4517 S.O2    1  UNL1        0.0319
      8 O          63.6178   91.1907   13.9989 O.2     1  UNL1       -0.1641
      9 O          66.3802   90.4501   14.9045 O.2     1  UNL1       -0.1641
     10 N          66.0773   93.9652   12.4486 N.ar    1  UNL1       -0.2500
     11 C          65.4319   92.6129   12.5166 C.ar    1  UNL1        0.1153
     12 C          65.5195   92.1282   13.9335 C.ar    1  UNL1        0.1498
     13 C          66.2191   93.1810   14.7411 C.ar    1  UNL1        0.1404
     14 N          66.5638   94.3163   13.8235 N.ar    1  UNL1       -0.1663
     15 C          66.6788   94.2069    9.9327 C.3     1  UNL1        0.0263
     16 C          66.2125   94.8169   11.2213 C.3     1  UNL1        0.1054
     17 C          65.8814   96.2786   11.2825 C.3     1  UNL1        0.0263
     18 C          62.9170   85.5888   16.5245 C.3     1  UNL1        0.1361
     19 N          63.0065   84.3562   15.6744 N.am    1  UNL1       -0.2931
     20 C          62.5147   84.3849   14.2576 C.2     1  UNL1        0.2809
     21 O          61.9334   85.6462   13.6910 O.2     1  UNL1       -0.2668
     22 H          63.3881   83.5284   16.0463 H       1  UNL1        0.1502
     23 C          62.6043   83.1523   13.4075 C.ar    1  UNL1        0.1984
     24 C          62.3685   81.7444   13.8683 C.ar    1  UNL1        0.0453
     25 C          62.5639   80.8332   12.6929 C.ar    1  UNL1        0.0409
     26 C          62.4632   79.3434   12.5503 C.ar    1  UNL1        0.0238
     27 C          62.7190   78.6983   11.2205 C.ar    1  UNL1        0.0991
     28 N          63.0755   79.5430   10.0333 N.ar    1  UNL1       -0.2391
     29 C          63.1762   81.0328   10.1759 C.ar    1  UNL1        0.1362
     30 C          62.9204   81.6779   11.5057 C.ar    1  UNL1        0.1646
     31 O          62.9454   83.1112   11.9474 O.2     1  UNL1       -0.4473
@<TRIPOS>BOND
     1    15    16    1
     2    16    17    1
     3    16    10    1
     4    10    11   ar
     5    11    12   ar
     6    12     7    1
     7     7     8    2
     8     7     9    2
     9     7     1    1
    10     1     2   ar
    11     2     3   ar
    12     3     4   ar
    13     4    18    1
    14    18    19    1
    15    19    20   am
    16    20    21    2
    17    20    23    1
    18    23    24   ar
    19    24    25   ar
    20    25    26   ar
    21    26    27   ar
    22    27    28   ar
    23    28    29   ar
    24    29    30   ar
    25    30    31   ar
    26     4     5   ar
    27     5     6   ar
    28    12    13   ar
    29    13    14   ar
    30    14    10   ar
    31     6     1   ar
    32    31    23   ar
    33    30    25   ar
    34    19    22    1
