@<TRIPOS>MOLECULE
*****
 36 39 0 0 0
SMALL
GASTEIGER

@<TRIPOS>ATOM
      1 N          64.3422   90.4938   15.6463 N.ar    1  UNL1       -0.2459
      2 C          64.7369   89.0965   15.2696 C.ar    1  UNL1        0.1116
      3 C          63.6642   88.1657   15.7522 C.ar    1  UNL1        0.0907
      4 C          62.6064   88.9877   16.4271 C.ar    1  UNL1        0.1363
      5 N          63.0255   90.4265   16.3616 N.ar    1  UNL1       -0.1661
      6 N          63.6514   86.6747   15.5886 N.am    1  UNL1       -0.2775
      7 C          63.5656   86.0714   14.2180 C.2     1  UNL1        0.2572
      8 O          63.4924   86.9590   13.0111 O.2     1  UNL1       -0.2692
      9 H          63.6994   86.0922   16.3808 H       1  UNL1        0.1553
     10 C          63.5528   84.5804   14.0545 C.ar    1  UNL1        0.1036
     11 C          63.8247   83.5728   15.1319 C.ar    1  UNL1        0.1105
     12 N          63.7059   82.2049   14.5280 N.ar    1  UNL1       -0.2351
     13 C          63.3605   82.3670   13.0773 C.ar    1  UNL1        0.1285
     14 S          63.2659   83.8352   12.7846 S.2     1  UNL1       -0.0604
     15 C          63.1472   81.2561   12.0923 C.ar    1  UNL1        0.1050
     16 C          63.3871   81.4934   10.6306 C.ar    1  UNL1        0.0212
     17 C          63.1738   80.3824    9.6456 C.ar    1  UNL1        0.0032
     18 C          62.7206   79.0342   10.1221 C.ar    1  UNL1        0.0207
     19 C          62.4808   78.7970   11.5837 C.ar    1  UNL1        0.0989
     20 N          62.6941   79.9079   12.5687 N.ar    1  UNL1       -0.2418
     21 C          65.3483   92.7534   16.4410 C.3     1  UNL1        0.0312
     22 C          65.1265   91.7395   15.3581 C.3     1  UNL1        0.1274
     23 C          65.6890   91.9713   13.9870 C.ar    1  UNL1        0.0038
     24 C          64.7811   91.9649   12.7930 C.ar    1  UNL1       -0.0025
     25 C          65.3436   92.1967   11.4219 C.ar    1  UNL1        0.0036
     26 C          66.8140   92.4349   11.2449 C.ar    1  UNL1        0.0714
     27 C          67.7218   92.4413   12.4389 C.ar    1  UNL1        0.0074
     28 C          67.1593   92.2095   13.8099 C.ar    1  UNL1        0.0692
     29 C          67.3765   92.6667    9.8737 C.3     1  UNL1        0.4186
     30 F          67.9389   92.8986    8.5027 F       1  UNL1       -0.1659
     31 F          68.3415   91.5368   10.0786 F       1  UNL1       -0.1659
     32 F          66.4114   93.7966    9.6689 F       1  UNL1       -0.1659
     33 C          68.0672   92.2159   15.0041 C.3     1  UNL1        0.4183
     34 F          68.9750   92.2222   16.1981 F       1  UNL1       -0.1659
     35 F          67.9625   90.7222   15.0916 F       1  UNL1       -0.1659
     36 F          68.1719   93.7097   14.9165 F       1  UNL1       -0.1659
@<TRIPOS>BOND
     1    21    22    1
     2    22    23    1
     3    23    24   ar
     4    24    25   ar
     5    25    26   ar
     6    26    29    1
     7    29    30    1
     8    29    31    1
     9    29    32    1
    10    26    27   ar
    11    27    28   ar
    12    28    33    1
    13    33    34    1
    14    33    35    1
    15    33    36    1
    16    22     1    1
    17     1     2   ar
    18     2     3   ar
    19     3     6    1
    20     6     7   am
    21     7     8    2
    22     7    10    1
    23    10    11   ar
    24    11    12   ar
    25    12    13   ar
    26    13    15    1
    27    15    16   ar
    28    16    17   ar
    29    17    18   ar
    30    18    19   ar
    31    19    20   ar
    32    13    14   ar
    33     3     4   ar
    34     4     5   ar
    35    28    23   ar
    36     5     1   ar
    37    14    10   ar
    38    20    15   ar
    39     6     9    1
@<TRIPOS>MOLECULE
*****
 36 39 0 0 0
SMALL
GASTEIGER

@<TRIPOS>ATOM
      1 N          61.6234   87.5383   11.1686 N.ar    1  UNL1       -0.2459
      2 C          61.8871   88.5065   10.0536 C.ar    1  UNL1        0.1116
      3 C          60.5658   88.9188    9.4755 C.ar    1  UNL1        0.0907
      4 C          59.4855   88.2055   10.2332 C.ar    1  UNL1        0.1363
      5 N          60.1391   87.3523   11.2796 N.ar    1  UNL1       -0.1661
      6 N          60.3608   89.8763    8.3392 N.am    1  UNL1       -0.2775
      7 C          59.5657   89.4563    7.1387 C.2     1  UNL1        0.2572
      8 O          58.9756   88.0788    7.0744 O.2     1  UNL1       -0.2692
      9 H          60.7482   90.7805    8.3814 H       1  UNL1        0.1553
     10 C          59.3608   90.4138    6.0024 C.ar    1  UNL1        0.1036
     11 C          58.0429   90.9525    5.5301 C.ar    1  UNL1        0.1105
     12 N          58.3054   91.8724    4.3747 N.ar    1  UNL1       -0.2351
     13 C          59.7855   91.9023    4.1329 C.ar    1  UNL1        0.1285
     14 S          60.4378   91.0008    5.1390 S.2     1  UNL1       -0.0604
     15 C          60.4897   92.6945    3.0716 C.ar    1  UNL1        0.1050
     16 C          61.9150   92.3819    2.7239 C.ar    1  UNL1        0.0212
     17 C          62.6192   93.1741    1.6626 C.ar    1  UNL1        0.0032
     18 C          61.8981   94.2790    0.9489 C.ar    1  UNL1        0.0207
     19 C          60.4728   94.5915    1.2965 C.ar    1  UNL1        0.0989
     20 N          59.7686   93.7993    2.3579 N.ar    1  UNL1       -0.2418
     21 C          63.7072   87.6986   12.7119 C.3     1  UNL1        0.0312
     22 C          62.6617   86.8730   12.0226 C.3     1  UNL1        0.1274
     23 C          62.6543   85.3820   12.1873 C.ar    1  UNL1        0.0038
     24 C          62.6344   84.7793   13.5607 C.ar    1  UNL1       -0.0025
     25 C          62.6271   83.2884   13.7253 C.ar    1  UNL1        0.0036
     26 C          62.6397   82.4003   12.5165 C.ar    1  UNL1        0.0714
     27 C          62.6595   83.0030   11.1432 C.ar    1  UNL1        0.0074
     28 C          62.6669   84.4939   10.9785 C.ar    1  UNL1        0.0692
     29 C          62.6323   80.9093   12.6812 C.3     1  UNL1        0.4186
     30 F          62.6250   79.4184   12.8460 F       1  UNL1       -0.1659
     31 F          62.9379   80.7465   11.2218 F       1  UNL1       -0.1659
     32 F          62.3267   81.0721   14.1407 F       1  UNL1       -0.1659
     33 C          62.6867   85.0968    9.6051 C.3     1  UNL1        0.4183
     34 F          62.7067   85.6996    8.2317 F       1  UNL1       -0.1659
     35 F          64.1661   84.8626    9.5238 F       1  UNL1       -0.1659
     36 F          61.2074   85.3310    9.6864 F       1  UNL1       -0.1659
@<TRIPOS>BOND
     1    21    22    1
     2    22    23    1
     3    23    24   ar
     4    24    25   ar
     5    25    26   ar
     6    26    29    1
     7    29    30    1
     8    29    31    1
     9    29    32    1
    10    26    27   ar
    11    27    28   ar
    12    28    33    1
    13    33    34    1
    14    33    35    1
    15    33    36    1
    16    22     1    1
    17     1     2   ar
    18     2     3   ar
    19     3     6    1
    20     6     7   am
    21     7     8    2
    22     7    10    1
    23    10    11   ar
    24    11    12   ar
    25    12    13   ar
    26    13    15    1
    27    15    16   ar
    28    16    17   ar
    29    17    18   ar
    30    18    19   ar
    31    19    20   ar
    32    13    14   ar
    33     3     4   ar
    34     4     5   ar
    35    28    23   ar
    36     5     1   ar
    37    14    10   ar
    38    20    15   ar
    39     6     9    1
@<TRIPOS>MOLECULE
*****
 36 39 0 0 0
SMALL
GASTEIGER

@<TRIPOS>ATOM
      1 N          61.8115   87.6152   11.4323 N.ar    1  UNL1       -0.2459
      2 C          62.0584   88.5456   10.2819 C.ar    1  UNL1        0.1116
      3 C          60.7306   88.9076    9.6853 C.ar    1  UNL1        0.0907
      4 C          59.6631   88.2010   10.4669 C.ar    1  UNL1        0.1363
      5 N          60.3311   87.4022   11.5466 N.ar    1  UNL1       -0.1661
      6 N          60.5093   89.8166    8.5128 N.am    1  UNL1       -0.2775
      7 C          59.6456   89.3705    7.3705 C.2     1  UNL1        0.2572
      8 O          59.0032   88.0154    7.4006 O.2     1  UNL1       -0.2692
      9 H          60.9309   90.7061    8.4930 H       1  UNL1        0.1553
     10 C          59.4243   90.2796    6.1980 C.ar    1  UNL1        0.1036
     11 C          58.0963   90.7638    5.6962 C.ar    1  UNL1        0.1105
     12 N          58.3434   91.6475    4.5095 N.ar    1  UNL1       -0.2351
     13 C          59.8241   91.7094    4.2780 C.ar    1  UNL1        0.1285
     14 S          60.4922   90.8639    5.3216 S.2     1  UNL1       -0.0604
     15 C          60.5155   92.4812    3.1934 C.ar    1  UNL1        0.1050
     16 C          61.9573   92.2091    2.8815 C.ar    1  UNL1        0.0212
     17 C          62.6486   92.9808    1.7969 C.ar    1  UNL1        0.0032
     18 C          61.8981   94.0247    1.0241 C.ar    1  UNL1        0.0207
     19 C          60.4564   94.2968    1.3360 C.ar    1  UNL1        0.0989
     20 N          59.7650   93.5250    2.4206 N.ar    1  UNL1       -0.2418
     21 C          63.8341   87.8849   13.0405 C.3     1  UNL1        0.0312
     22 C          62.8607   87.0050   12.3137 C.3     1  UNL1        0.1274
     23 C          62.9365   85.5149   12.4682 C.ar    1  UNL1        0.0038
     24 C          62.5717   84.6222   11.3193 C.ar    1  UNL1       -0.0025
     25 C          62.6474   83.1322   11.4738 C.ar    1  UNL1        0.0036
     26 C          63.0881   82.5348   12.7773 C.ar    1  UNL1        0.0714
     27 C          63.4529   83.4274   13.9262 C.ar    1  UNL1        0.0074
     28 C          63.3771   84.9175   13.7716 C.ar    1  UNL1        0.0692
     29 C          63.1639   81.0446   12.9318 C.3     1  UNL1        0.4186
     30 F          63.2397   79.5546   13.0863 F       1  UNL1       -0.1659
     31 F          61.8851   80.8996   12.1613 F       1  UNL1       -0.1659
     32 F          64.4426   81.1896   13.7023 F       1  UNL1       -0.1659
     33 C          63.7420   85.8102   14.9206 C.3     1  UNL1        0.4183
     34 F          64.1068   86.7029   16.0694 F       1  UNL1       -0.1659
     35 F          62.3163   85.7933   15.3864 F       1  UNL1       -0.1659
     36 F          65.1677   85.8271   14.4547 F       1  UNL1       -0.1659
@<TRIPOS>BOND
     1    21    22    1
     2    22    23    1
     3    23    24   ar
     4    24    25   ar
     5    25    26   ar
     6    26    29    1
     7    29    30    1
     8    29    31    1
     9    29    32    1
    10    26    27   ar
    11    27    28   ar
    12    28    33    1
    13    33    34    1
    14    33    35    1
    15    33    36    1
    16    22     1    1
    17     1     2   ar
    18     2     3   ar
    19     3     6    1
    20     6     7   am
    21     7     8    2
    22     7    10    1
    23    10    11   ar
    24    11    12   ar
    25    12    13   ar
    26    13    15    1
    27    15    16   ar
    28    16    17   ar
    29    17    18   ar
    30    18    19   ar
    31    19    20   ar
    32    13    14   ar
    33     3     4   ar
    34     4     5   ar
    35    28    23   ar
    36     5     1   ar
    37    14    10   ar
    38    20    15   ar
    39     6     9    1
@<TRIPOS>MOLECULE
*****
 36 39 0 0 0
SMALL
GASTEIGER

@<TRIPOS>ATOM
      1 N          63.2660   90.6393   11.4681 N.ar    1  UNL1       -0.2459
      2 C          63.6228   89.1977   11.6790 C.ar    1  UNL1        0.1116
      3 C          62.3545   88.3973   11.6505 C.ar    1  UNL1        0.0907
      4 C          61.2139   89.3442   11.4219 C.ar    1  UNL1        0.1363
      5 N          61.7772   90.7299   11.3092 N.ar    1  UNL1       -0.1661
      6 N          62.2460   86.9110   11.8207 N.am    1  UNL1       -0.2775
      7 C          63.0414   86.2181   12.8871 C.2     1  UNL1        0.2572
      8 O          63.9453   87.0117   13.7834 O.2     1  UNL1       -0.2692
      9 H          61.6527   86.3902   11.2324 H       1  UNL1        0.1553
     10 C          62.9328   84.7318   13.0573 C.ar    1  UNL1        0.1036
     11 C          62.7820   84.0021   14.3591 C.ar    1  UNL1        0.1105
     12 N          62.7120   82.5335   14.0618 N.ar    1  UNL1       -0.2351
     13 C          62.8196   82.3555   12.5763 C.ar    1  UNL1        0.1285
     14 S          62.9561   83.7142   11.9554 S.2     1  UNL1       -0.0604
     15 C          62.7950   81.0485   11.8408 C.ar    1  UNL1        0.1050
     16 C          63.0510   81.0145   10.3632 C.ar    1  UNL1        0.0212
     17 C          63.0265   79.7074    9.6276 C.ar    1  UNL1        0.0032
     18 C          62.7459   78.4343   10.3698 C.ar    1  UNL1        0.0207
     19 C          62.4899   78.4684   11.8474 C.ar    1  UNL1        0.0989
     20 N          62.5144   79.7755   12.5829 N.ar    1  UNL1       -0.2418
     21 C          64.1583   92.7835   10.3035 C.3     1  UNL1        0.0312
     22 C          64.2290   91.7886   11.4238 C.3     1  UNL1        0.1274
     23 C          65.2626   91.9429   12.4999 C.ar    1  UNL1        0.0038
     24 C          64.9817   91.4449   13.8866 C.ar    1  UNL1       -0.0025
     25 C          66.0153   91.5992   14.9626 C.ar    1  UNL1        0.0036
     26 C          67.3298   92.2514   14.6518 C.ar    1  UNL1        0.0714
     27 C          67.6108   92.7494   13.2651 C.ar    1  UNL1        0.0074
     28 C          66.5772   92.5951   12.1891 C.ar    1  UNL1        0.0692
     29 C          68.3635   92.4057   15.7279 C.3     1  UNL1        0.4186
     30 F          69.3971   92.5600   16.8039 F       1  UNL1       -0.1659
     31 F          67.2879   92.3363   16.7711 F       1  UNL1       -0.1659
     32 F          69.4390   92.4751   14.6847 F       1  UNL1       -0.1659
     33 C          66.8581   93.0930   10.8023 C.3     1  UNL1        0.4183
     34 F          67.1390   93.5909    9.4155 F       1  UNL1       -0.1659
     35 F          67.3098   91.7201   10.4009 F       1  UNL1       -0.1659
     36 F          66.4063   94.4659   11.2036 F       1  UNL1       -0.1659
@<TRIPOS>BOND
     1    21    22    1
     2    22    23    1
     3    23    24   ar
     4    24    25   ar
     5    25    26   ar
     6    26    29    1
     7    29    30    1
     8    29    31    1
     9    29    32    1
    10    26    27   ar
    11    27    28   ar
    12    28    33    1
    13    33    34    1
    14    33    35    1
    15    33    36    1
    16    22     1    1
    17     1     2   ar
    18     2     3   ar
    19     3     6    1
    20     6     7   am
    21     7     8    2
    22     7    10    1
    23    10    11   ar
    24    11    12   ar
    25    12    13   ar
    26    13    15    1
    27    15    16   ar
    28    16    17   ar
    29    17    18   ar
    30    18    19   ar
    31    19    20   ar
    32    13    14   ar
    33     3     4   ar
    34     4     5   ar
    35    28    23   ar
    36     5     1   ar
    37    14    10   ar
    38    20    15   ar
    39     6     9    1
@<TRIPOS>MOLECULE
*****
 36 39 0 0 0
SMALL
GASTEIGER

@<TRIPOS>ATOM
      1 N          63.6542   90.0914   12.7936 N.ar    1  UNL1       -0.2459
      2 C          63.9075   88.6409   13.0797 C.ar    1  UNL1        0.1116
      3 C          62.8972   87.8349   12.3182 C.ar    1  UNL1        0.0907
      4 C          62.0196   88.7874   11.5615 C.ar    1  UNL1        0.1363
      5 N          62.4874   90.1819   11.8553 N.ar    1  UNL1       -0.1661
      6 N          62.7845   86.3392   12.3142 N.am    1  UNL1       -0.2775
      7 C          63.1978   85.5527   13.5227 C.2     1  UNL1        0.2572
      8 O          63.7240   86.2620   14.7352 O.2     1  UNL1       -0.2692
      9 H          62.4391   85.8737   11.5184 H       1  UNL1        0.1553
     10 C          63.0851   84.0570   13.5187 C.ar    1  UNL1        0.1036
     11 C          62.9944   83.1764   14.7296 C.ar    1  UNL1        0.1105
     12 N          62.8964   81.7544   14.2623 N.ar    1  UNL1       -0.2351
     13 C          62.9266   81.7561   12.7626 C.ar    1  UNL1        0.1285
     14 S          63.0432   83.1793   12.3030 S.2     1  UNL1       -0.0604
     15 C          62.8532   80.5471   11.8779 C.ar    1  UNL1        0.1050
     16 C          63.0507   80.6878   10.3976 C.ar    1  UNL1        0.0212
     17 C          62.9772   79.4788    9.5128 C.ar    1  UNL1        0.0032
     18 C          62.7062   78.1290   10.1083 C.ar    1  UNL1        0.0207
     19 C          62.5087   77.9882   11.5886 C.ar    1  UNL1        0.0989
     20 N          62.5822   79.1973   12.4733 N.ar    1  UNL1       -0.2418
     21 C          64.4869   91.4727   14.8304 C.3     1  UNL1        0.0312
     22 C          64.4313   91.2483   13.3484 C.3     1  UNL1        0.1274
     23 C          65.1528   92.1808   12.4210 C.ar    1  UNL1        0.0038
     24 C          64.6041   92.4495   11.0511 C.ar    1  UNL1       -0.0025
     25 C          65.3256   93.3820   10.1238 C.ar    1  UNL1        0.0036
     26 C          66.5958   94.0458   10.5665 C.ar    1  UNL1        0.0714
     27 C          67.1445   93.7771   11.9364 C.ar    1  UNL1        0.0074
     28 C          66.4230   92.8447   12.8637 C.ar    1  UNL1        0.0692
     29 C          67.3173   94.9783    9.6391 C.3     1  UNL1        0.4186
     30 F          68.0388   95.9108    8.7118 F       1  UNL1       -0.1659
     31 F          67.6138   93.8325    8.7176 F       1  UNL1       -0.1659
     32 F          67.0208   96.1241   10.5606 F       1  UNL1       -0.1659
     33 C          66.9717   92.5760   14.2337 C.3     1  UNL1        0.4183
     34 F          67.5203   92.3073   15.6036 F       1  UNL1       -0.1659
     35 F          67.5738   91.2936   13.7410 F       1  UNL1       -0.1659
     36 F          66.3696   93.8584   14.7264 F       1  UNL1       -0.1659
@<TRIPOS>BOND
     1    21    22    1
     2    22    23    1
     3    23    24   ar
     4    24    25   ar
     5    25    26   ar
     6    26    29    1
     7    29    30    1
     8    29    31    1
     9    29    32    1
    10    26    27   ar
    11    27    28   ar
    12    28    33    1
    13    33    34    1
    14    33    35    1
    15    33    36    1
    16    22     1    1
    17     1     2   ar
    18     2     3   ar
    19     3     6    1
    20     6     7   am
    21     7     8    2
    22     7    10    1
    23    10    11   ar
    24    11    12   ar
    25    12    13   ar
    26    13    15    1
    27    15    16   ar
    28    16    17   ar
    29    17    18   ar
    30    18    19   ar
    31    19    20   ar
    32    13    14   ar
    33     3     4   ar
    34     4     5   ar
    35    28    23   ar
    36     5     1   ar
    37    14    10   ar
    38    20    15   ar
    39     6     9    1
@<TRIPOS>MOLECULE
*****
 36 39 0 0 0
SMALL
GASTEIGER

@<TRIPOS>ATOM
      1 N          61.1170   88.0834    9.4245 N.ar    1  UNL1       -0.2459
      2 C          62.3927   88.6729    9.9489 C.ar    1  UNL1        0.1116
      3 C          62.1957   90.1532   10.0904 C.ar    1  UNL1        0.0907
      4 C          60.7981   90.4785    9.6535 C.ar    1  UNL1        0.1363
      5 N          60.1314   89.1994    9.2420 N.ar    1  UNL1       -0.1661
      6 N          63.2169   91.1355   10.5824 N.am    1  UNL1       -0.2775
      7 C          63.9290   90.8907   11.8796 C.2     1  UNL1        0.2572
      8 O          63.6198   89.6635   12.6849 O.2     1  UNL1       -0.2692
      9 H          63.4198   91.9410   10.0538 H       1  UNL1        0.1553
     10 C          64.9502   91.8731   12.3716 C.ar    1  UNL1        0.1036
     11 C          65.2543   93.2090   11.7611 C.ar    1  UNL1        0.1105
     12 N          66.3386   93.8536   12.5727 N.ar    1  UNL1       -0.2351
     13 C          66.7047   92.9160   13.6849 C.ar    1  UNL1        0.1285
     14 S          65.8466   91.6919   13.5606 S.2     1  UNL1       -0.0604
     15 C          67.7461   93.1596   14.7366 C.ar    1  UNL1        0.1050
     16 C          68.3821   92.0004   15.4451 C.ar    1  UNL1        0.0212
     17 C          69.4235   92.2440   16.4968 C.ar    1  UNL1        0.0032
     18 C          69.8288   93.6469   16.8401 C.ar    1  UNL1        0.0207
     19 C          69.1929   94.8060   16.1317 C.ar    1  UNL1        0.0989
     20 N          68.1515   94.5624   15.0800 N.ar    1  UNL1       -0.2418
     21 C          59.7970   86.2341    8.1646 C.3     1  UNL1        0.0312
     22 C          60.8701   86.6327    9.1338 C.3     1  UNL1        0.1274
     23 C          61.6964   85.5806    9.8124 C.ar    1  UNL1        0.0038
     24 C          61.5698   85.3659   11.2915 C.ar    1  UNL1       -0.0025
     25 C          62.3961   84.3138   11.9700 C.ar    1  UNL1        0.0036
     26 C          63.3490   83.4766   11.1695 C.ar    1  UNL1        0.0714
     27 C          63.4756   83.6913    9.6904 C.ar    1  UNL1        0.0074
     28 C          62.6494   84.7434    9.0118 C.ar    1  UNL1        0.0692
     29 C          64.1753   82.4245   11.8480 C.3     1  UNL1        0.4186
     30 F          65.0016   81.3724   12.5266 F       1  UNL1       -0.1659
     31 F          64.8477   83.4832   12.6708 F       1  UNL1       -0.1659
     32 F          63.5029   81.3658   11.0253 F       1  UNL1       -0.1659
     33 C          62.7760   84.9582    7.5327 C.3     1  UNL1        0.4183
     34 F          62.9026   85.1731    6.0536 F       1  UNL1       -0.1659
     35 F          63.8648   85.9618    7.7717 F       1  UNL1       -0.1659
     36 F          61.6871   83.9546    7.2937 F       1  UNL1       -0.1659
@<TRIPOS>BOND
     1    21    22    1
     2    22    23    1
     3    23    24   ar
     4    24    25   ar
     5    25    26   ar
     6    26    29    1
     7    29    30    1
     8    29    31    1
     9    29    32    1
    10    26    27   ar
    11    27    28   ar
    12    28    33    1
    13    33    34    1
    14    33    35    1
    15    33    36    1
    16    22     1    1
    17     1     2   ar
    18     2     3   ar
    19     3     6    1
    20     6     7   am
    21     7     8    2
    22     7    10    1
    23    10    11   ar
    24    11    12   ar
    25    12    13   ar
    26    13    15    1
    27    15    16   ar
    28    16    17   ar
    29    17    18   ar
    30    18    19   ar
    31    19    20   ar
    32    13    14   ar
    33     3     4   ar
    34     4     5   ar
    35    28    23   ar
    36     5     1   ar
    37    14    10   ar
    38    20    15   ar
    39     6     9    1
@<TRIPOS>MOLECULE
*****
 36 39 0 0 0
SMALL
GASTEIGER

@<TRIPOS>ATOM
      1 N          61.9390   88.3030   11.3891 N.ar    1  UNL1       -0.2459
      2 C          61.9847   89.3739   10.3398 C.ar    1  UNL1        0.1116
      3 C          60.7364   89.2682    9.5148 C.ar    1  UNL1        0.0907
      4 C          59.9192   88.1319   10.0542 C.ar    1  UNL1        0.1363
      5 N          60.6625   87.5353   11.2126 N.ar    1  UNL1       -0.1661
      6 N          60.3697   90.1449    8.3543 N.am    1  UNL1       -0.2775
      7 C          59.6961   89.5539    7.1514 C.2     1  UNL1        0.2572
      8 O          59.3891   88.0862    7.1091 O.2     1  UNL1       -0.2692
      9 H          60.5711   91.1081    8.3820 H       1  UNL1        0.1553
     10 C          59.3294   90.4306    5.9908 C.ar    1  UNL1        0.1036
     11 C          57.9436   90.8694    5.6206 C.ar    1  UNL1        0.1105
     12 N          58.0419   91.7324    4.3976 N.ar    1  UNL1       -0.2351
     13 C          59.4884   91.8269    4.0120 C.ar    1  UNL1        0.1285
     14 S          60.2842   91.0223    4.9967 S.2     1  UNL1       -0.0604
     15 C          60.0420   92.5917    2.8464 C.ar    1  UNL1        0.1050
     16 C          61.5250   92.6636    2.6328 C.ar    1  UNL1        0.0212
     17 C          62.0786   93.4284    1.4672 C.ar    1  UNL1        0.0032
     18 C          61.1492   94.1213    0.5152 C.ar    1  UNL1        0.0207
     19 C          59.6663   94.0494    0.7289 C.ar    1  UNL1        0.0989
     20 N          59.1127   93.2846    1.8945 N.ar    1  UNL1       -0.2418
     21 C          63.2455   86.6450   12.9037 C.3     1  UNL1        0.0312
     22 C          62.9860   88.0449   12.4318 C.3     1  UNL1        0.1274
     23 C          63.7736   89.1870   13.0025 C.ar    1  UNL1        0.0038
     24 C          64.0456   90.4023   12.1665 C.ar    1  UNL1       -0.0025
     25 C          64.8331   91.5442   12.7373 C.ar    1  UNL1        0.0036
     26 C          65.3485   91.4708   14.1440 C.ar    1  UNL1        0.0714
     27 C          65.0765   90.2555   14.9800 C.ar    1  UNL1        0.0074
     28 C          64.2890   89.1135   14.4092 C.ar    1  UNL1        0.0692
     29 C          66.1361   92.6128   14.7148 C.3     1  UNL1        0.4186
     30 F          66.9235   93.7548   15.2855 F       1  UNL1       -0.1659
     31 F          66.8095   92.8110   13.3892 F       1  UNL1       -0.1659
     32 F          65.4626   92.4147   16.0403 F       1  UNL1       -0.1659
     33 C          64.0170   87.8981   15.2452 C.3     1  UNL1        0.4183
     34 F          63.7450   86.6827   16.0811 F       1  UNL1       -0.1659
     35 F          65.2201   87.2235   14.6558 F       1  UNL1       -0.1659
     36 F          62.8139   88.5727   15.8346 F       1  UNL1       -0.1659
@<TRIPOS>BOND
     1    21    22    1
     2    22    23    1
     3    23    24   ar
     4    24    25   ar
     5    25    26   ar
     6    26    29    1
     7    29    30    1
     8    29    31    1
     9    29    32    1
    10    26    27   ar
    11    27    28   ar
    12    28    33    1
    13    33    34    1
    14    33    35    1
    15    33    36    1
    16    22     1    1
    17     1     2   ar
    18     2     3   ar
    19     3     6    1
    20     6     7   am
    21     7     8    2
    22     7    10    1
    23    10    11   ar
    24    11    12   ar
    25    12    13   ar
    26    13    15    1
    27    15    16   ar
    28    16    17   ar
    29    17    18   ar
    30    18    19   ar
    31    19    20   ar
    32    13    14   ar
    33     3     4   ar
    34     4     5   ar
    35    28    23   ar
    36     5     1   ar
    37    14    10   ar
    38    20    15   ar
    39     6     9    1
@<TRIPOS>MOLECULE
*****
 36 39 0 0 0
SMALL
GASTEIGER

@<TRIPOS>ATOM
      1 N          63.1401   86.8074   15.5794 N.ar    1  UNL1       -0.2459
      2 C          63.9841   87.7580   14.7832 C.ar    1  UNL1        0.1116
      3 C          64.0378   89.0616   15.5233 C.ar    1  UNL1        0.0907
      4 C          63.2270   88.9167   16.7769 C.ar    1  UNL1        0.1363
      5 N          62.6722   87.5235   16.8116 N.ar    1  UNL1       -0.1661
      6 N          64.7733   90.2938   15.0864 N.am    1  UNL1       -0.2775
      7 C          64.6197   90.8009   13.6831 C.2     1  UNL1        0.2572
      8 O          63.7306   90.0759   12.7167 O.2     1  UNL1       -0.2692
      9 H          65.3568   90.7697   15.7207 H       1  UNL1        0.1553
     10 C          65.3551   92.0331   13.2462 C.ar    1  UNL1        0.1036
     11 C          66.0572   93.0064   14.1461 C.ar    1  UNL1        0.1105
     12 N          66.6536   94.0831   13.2887 N.ar    1  UNL1       -0.2351
     13 C          66.3200   93.7753   11.8590 C.ar    1  UNL1        0.1285
     14 S          65.5175   92.5082   11.8327 S.2     1  UNL1       -0.0604
     15 C          66.7190   94.5912   10.6652 C.ar    1  UNL1        0.1050
     16 C          67.5209   93.9651    9.5629 C.ar    1  UNL1        0.0212
     17 C          67.9198   94.7810    8.3691 C.ar    1  UNL1        0.0032
     18 C          67.5168   96.2230    8.2776 C.ar    1  UNL1        0.0207
     19 C          66.7149   96.8490    9.3799 C.ar    1  UNL1        0.0989
     20 N          66.3160   96.0331   10.5737 N.ar    1  UNL1       -0.2418
     21 C          62.3462   84.4286   16.2582 C.3     1  UNL1        0.0312
     22 C          62.8202   85.3896   15.2086 C.3     1  UNL1        0.1274
     23 C          62.9743   84.9328   13.7881 C.ar    1  UNL1        0.0038
     24 C          62.1662   85.5774   12.7012 C.ar    1  UNL1       -0.0025
     25 C          62.3204   85.1207   11.2808 C.ar    1  UNL1        0.0036
     26 C          63.2826   84.0194   10.9473 C.ar    1  UNL1        0.0714
     27 C          64.0907   83.3748   12.0343 C.ar    1  UNL1        0.0074
     28 C          63.9365   83.8315   13.4547 C.ar    1  UNL1        0.0692
     29 C          63.4367   83.5626    9.5269 C.3     1  UNL1        0.4186
     30 F          63.5908   83.1059    8.1065 F       1  UNL1       -0.1659
     31 F          63.4904   84.9913    9.0732 F       1  UNL1       -0.1659
     32 F          63.3830   82.1339    9.9805 F       1  UNL1       -0.1659
     33 C          64.7446   83.1869   14.5417 C.3     1  UNL1        0.4183
     34 F          65.5527   82.5424   15.6287 F       1  UNL1       -0.1659
     35 F          65.4560   84.4853   14.7827 F       1  UNL1       -0.1659
     36 F          64.0332   81.8886   14.3007 F       1  UNL1       -0.1659
@<TRIPOS>BOND
     1    21    22    1
     2    22    23    1
     3    23    24   ar
     4    24    25   ar
     5    25    26   ar
     6    26    29    1
     7    29    30    1
     8    29    31    1
     9    29    32    1
    10    26    27   ar
    11    27    28   ar
    12    28    33    1
    13    33    34    1
    14    33    35    1
    15    33    36    1
    16    22     1    1
    17     1     2   ar
    18     2     3   ar
    19     3     6    1
    20     6     7   am
    21     7     8    2
    22     7    10    1
    23    10    11   ar
    24    11    12   ar
    25    12    13   ar
    26    13    15    1
    27    15    16   ar
    28    16    17   ar
    29    17    18   ar
    30    18    19   ar
    31    19    20   ar
    32    13    14   ar
    33     3     4   ar
    34     4     5   ar
    35    28    23   ar
    36     5     1   ar
    37    14    10   ar
    38    20    15   ar
    39     6     9    1
@<TRIPOS>MOLECULE
*****
 36 39 0 0 0
SMALL
GASTEIGER

@<TRIPOS>ATOM
      1 N          61.1514   94.9717    0.2131 N.ar    1  UNL1       -0.2459
      2 C          61.1551   94.0124    1.3663 C.ar    1  UNL1        0.1116
      3 C          59.8452   93.2815    1.3654 C.ar    1  UNL1        0.0907
      4 C          59.0319   93.7891    0.2118 C.ar    1  UNL1        0.1363
      5 N          59.8392   94.8337   -0.5004 N.ar    1  UNL1       -0.1661
      6 N          59.4227   92.2280    2.3461 N.am    1  UNL1       -0.2775
      7 C          59.3271   92.5578    3.8063 C.2     1  UNL1        0.2572
      8 O          59.6539   93.9410    4.2858 O.2     1  UNL1       -0.2692
      9 H          59.2083   91.3202    2.0314 H       1  UNL1        0.1553
     10 C          58.9047   91.5043    4.7869 C.ar    1  UNL1        0.1036
     11 C          57.4920   91.1344    5.1297 C.ar    1  UNL1        0.1105
     12 N          57.5350   90.0373    6.1516 N.ar    1  UNL1       -0.2351
     13 C          58.9743   89.7290    6.4405 C.ar    1  UNL1        0.1285
     14 S          59.8209   90.6357    5.5970 S.2     1  UNL1       -0.0604
     15 C          59.4786   88.6955    7.4036 C.ar    1  UNL1        0.1050
     16 C          60.1275   89.1202    8.6876 C.ar    1  UNL1        0.0212
     17 C          60.6317   88.0867    9.6508 C.ar    1  UNL1        0.0032
     18 C          60.4871   86.6285    9.3298 C.ar    1  UNL1        0.0207
     19 C          59.8383   86.2039    8.0458 C.ar    1  UNL1        0.0989
     20 N          59.3340   87.2374    7.0827 N.ar    1  UNL1       -0.2418
     21 C          62.8199   96.8560    0.8576 C.3     1  UNL1        0.0312
     22 C          62.2644   95.9051   -0.1608 C.3     1  UNL1        0.1274
     23 C          62.8220   95.8876   -1.5533 C.ar    1  UNL1        0.0038
     24 C          62.1831   96.7170   -2.6275 C.ar    1  UNL1       -0.0025
     25 C          62.7407   96.6995   -4.0199 C.ar    1  UNL1        0.0036
     26 C          63.9371   95.8526   -4.3381 C.ar    1  UNL1        0.0714
     27 C          64.5760   95.0231   -3.2639 C.ar    1  UNL1        0.0074
     28 C          64.0184   95.0407   -1.8715 C.ar    1  UNL1        0.0692
     29 C          64.4947   95.8351   -5.7305 C.3     1  UNL1        0.4186
     30 F          65.0522   95.8176   -7.1229 F       1  UNL1       -0.1659
     31 F          63.1039   95.7532   -6.2864 F       1  UNL1       -0.1659
     32 F          65.8854   95.9169   -5.1747 F       1  UNL1       -0.1659
     33 C          64.6573   94.2112   -0.7973 C.3     1  UNL1        0.4183
     34 F          65.2961   93.3818    0.2769 F       1  UNL1       -0.1659
     35 F          63.7127   93.0870   -1.1036 F       1  UNL1       -0.1659
     36 F          65.6019   95.3354   -0.4910 F       1  UNL1       -0.1659
@<TRIPOS>BOND
     1    21    22    1
     2    22    23    1
     3    23    24   ar
     4    24    25   ar
     5    25    26   ar
     6    26    29    1
     7    29    30    1
     8    29    31    1
     9    29    32    1
    10    26    27   ar
    11    27    28   ar
    12    28    33    1
    13    33    34    1
    14    33    35    1
    15    33    36    1
    16    22     1    1
    17     1     2   ar
    18     2     3   ar
    19     3     6    1
    20     6     7   am
    21     7     8    2
    22     7    10    1
    23    10    11   ar
    24    11    12   ar
    25    12    13   ar
    26    13    15    1
    27    15    16   ar
    28    16    17   ar
    29    17    18   ar
    30    18    19   ar
    31    19    20   ar
    32    13    14   ar
    33     3     4   ar
    34     4     5   ar
    35    28    23   ar
    36     5     1   ar
    37    14    10   ar
    38    20    15   ar
    39     6     9    1
