@<TRIPOS>MOLECULE
*****
 26 29 0 0 0
SMALL
GASTEIGER

@<TRIPOS>ATOM
      1 N          63.9848   90.2113   12.7753 N.ar    1  UNL1       -0.3123
      2 C          64.3764   89.9341   14.1965 C.ar    1  UNL1        0.1213
      3 N          65.3067   91.0233   14.6418 N.ar    1  UNL1       -0.2309
      4 C          65.4900   91.9736   13.4958 C.ar    1  UNL1        0.0983
      5 C          66.2953   93.2311   13.3536 C.ar    1  UNL1        0.0206
      6 C          66.2836   93.9866   12.0579 C.ar    1  UNL1        0.0016
      7 C          65.4667   93.4848   10.9043 C.ar    1  UNL1        0.0016
      8 C          64.6614   92.2273   11.0465 C.ar    1  UNL1        0.0188
      9 C          64.6730   91.4717   12.3422 C.ar    1  UNL1        0.0787
     10 C          63.9182   88.7719   15.0267 C.3     1  UNL1        0.0729
     11 C          63.4560   88.9931   16.4365 C.3     1  UNL1        0.0103
     12 C          62.9978   87.8308   17.2666 C.3     1  UNL1        0.0178
     13 C          63.0018   86.4474   16.6871 C.3     1  UNL1        0.0721
     14 N          63.4639   86.2261   15.2773 N.3     1  UNL1       -0.2736
     15 C          63.9221   87.3884   14.4471 C.3     1  UNL1        0.0795
     16 C          63.4678   84.8426   14.6977 C.3     1  UNL1        0.0575
     17 C          64.4791   84.4694   13.6546 C.3     1  UNL1        0.0160
     18 C          64.4830   83.0859   13.0749 C.3     1  UNL1        0.0014
     19 C          63.4757   82.0756   13.5384 C.3     1  UNL1        0.0001
     20 C          62.4645   82.4489   14.5815 C.3     1  UNL1        0.0014
     21 C          62.4606   83.8324   15.1612 C.3     1  UNL1        0.0160
     22 C          63.0662   89.3748   11.9348 C.3     1  UNL1        0.1392
     23 C          61.6032   89.6996   11.8718 C.3     1  UNL1        0.1666
     24 O          60.5890   88.5945   11.8673 O.3     1  UNL1       -0.3517
     25 C          61.3847   86.2221   11.1681 C.3     1  UNL1        0.0346
     26 C          60.6743   87.5025   10.8425 C.3     1  UNL1        0.1423
@<TRIPOS>BOND
     1    25    26    1
     2    26    24    1
     3    24    23    1
     4    23    22    1
     5    22     1    1
     6     1     2   ar
     7     2    10    1
     8    10    11    1
     9    11    12    1
    10    12    13    1
    11    13    14    1
    12    14    16    1
    13    16    17    1
    14    17    18    1
    15    18    19    1
    16    19    20    1
    17    20    21    1
    18    14    15    1
    19     2     3   ar
    20     3     4   ar
    21     4     5   ar
    22     5     6   ar
    23     6     7   ar
    24     7     8   ar
    25     8     9   ar
    26     9     1   ar
    27    15    10    1
    28     9     4   ar
    29    21    16    1
@<TRIPOS>MOLECULE
*****
 26 29 0 0 0
SMALL
GASTEIGER

@<TRIPOS>ATOM
      1 N          63.9570   90.1620   13.6930 N.ar    1  UNL1       -0.3123
      2 C          63.2790   90.4176   12.3797 C.ar    1  UNL1        0.1213
      3 N          63.9576   91.5855   11.7274 N.ar    1  UNL1       -0.2309
      4 C          65.0549   92.0517   12.6376 C.ar    1  UNL1        0.0983
      5 C          66.0544   93.1636   12.5172 C.ar    1  UNL1        0.0206
      6 C          67.0536   93.3957   13.6116 C.ar    1  UNL1        0.0016
      7 C          67.0532   92.5159   14.8264 C.ar    1  UNL1        0.0016
      8 C          66.0537   91.4040   14.9469 C.ar    1  UNL1        0.0188
      9 C          65.0546   91.1719   13.8525 C.ar    1  UNL1        0.0787
     10 C          62.1250   89.6416   11.8173 C.3     1  UNL1        0.0729
     11 C          60.7353   89.8920   12.3230 C.3     1  UNL1        0.0103
     12 C          59.5813   89.1160   11.7607 C.3     1  UNL1        0.0178
     13 C          59.8171   88.0896   10.6926 C.3     1  UNL1        0.0721
     14 N          61.2069   87.8392   10.1869 N.3     1  UNL1       -0.2736
     15 C          62.3609   88.6152   10.7492 C.3     1  UNL1        0.0795
     16 C          61.4428   86.8127    9.1188 C.3     1  UNL1        0.0575
     17 C          62.7820   86.1473    9.0007 C.3     1  UNL1        0.0160
     18 C          63.0179   85.1209    7.9327 C.3     1  UNL1        0.0014
     19 C          61.9146   84.7598    6.9826 C.3     1  UNL1        0.0001
     20 C          60.5754   85.4252    7.1007 C.3     1  UNL1        0.0014
     21 C          60.3396   86.4517    8.1688 C.3     1  UNL1        0.0160
     22 C          63.6000   89.0854   14.6747 C.3     1  UNL1        0.1392
     23 C          64.3780   87.8032   14.6974 C.3     1  UNL1        0.1666
     24 O          63.6720   86.5017   14.9377 O.3     1  UNL1       -0.3517
     25 C          62.7578   86.5686   17.3687 C.3     1  UNL1        0.0346
     26 C          63.6152   85.9234   16.3206 C.3     1  UNL1        0.1423
@<TRIPOS>BOND
     1    25    26    1
     2    26    24    1
     3    24    23    1
     4    23    22    1
     5    22     1    1
     6     1     2   ar
     7     2    10    1
     8    10    11    1
     9    11    12    1
    10    12    13    1
    11    13    14    1
    12    14    16    1
    13    16    17    1
    14    17    18    1
    15    18    19    1
    16    19    20    1
    17    20    21    1
    18    14    15    1
    19     2     3   ar
    20     3     4   ar
    21     4     5   ar
    22     5     6   ar
    23     6     7   ar
    24     7     8   ar
    25     8     9   ar
    26     9     1   ar
    27    15    10    1
    28     9     4   ar
    29    21    16    1
@<TRIPOS>MOLECULE
*****
 26 29 0 0 0
SMALL
GASTEIGER

@<TRIPOS>ATOM
      1 N          64.2636   90.1046   13.8453 N.ar    1  UNL1       -0.3123
      2 C          63.6222   90.0725   12.4897 C.ar    1  UNL1        0.1213
      3 N          64.0722   91.2883   11.7352 N.ar    1  UNL1       -0.2309
      4 C          64.9917   92.0718   12.6243 C.ar    1  UNL1        0.0983
      5 C          65.7365   93.3568   12.4150 C.ar    1  UNL1        0.0206
      6 C          66.5997   93.9103   13.5098 C.ar    1  UNL1        0.0016
      7 C          66.7180   93.1788   14.8139 C.ar    1  UNL1        0.0016
      8 C          65.9731   91.8937   15.0233 C.ar    1  UNL1        0.0188
      9 C          65.1100   91.3402   13.9285 C.ar    1  UNL1        0.0787
     10 C          62.6939   89.0110   11.9785 C.3     1  UNL1        0.0729
     11 C          61.3218   89.3820   11.4992 C.3     1  UNL1        0.0103
     12 C          60.3935   88.3205   10.9880 C.3     1  UNL1        0.0178
     13 C          60.8371   86.8880   10.9560 C.3     1  UNL1        0.0721
     14 N          62.2092   86.5170   11.4353 N.3     1  UNL1       -0.2736
     15 C          63.1376   87.5785   11.9466 C.3     1  UNL1        0.0795
     16 C          62.6529   85.0845   11.4035 C.3     1  UNL1        0.0575
     17 C          62.4915   84.2221   12.6201 C.3     1  UNL1        0.0160
     18 C          62.9352   82.7896   12.5882 C.3     1  UNL1        0.0014
     19 C          63.5404   82.2194   11.3397 C.3     1  UNL1        0.0001
     20 C          63.7018   83.0818   10.1231 C.3     1  UNL1        0.0014
     21 C          63.2581   84.5144   10.1550 C.3     1  UNL1        0.0160
     22 C          64.0893   89.0809   14.9276 C.3     1  UNL1        0.1392
     23 C          63.2536   89.3978   16.1322 C.3     1  UNL1        0.1666
     24 O          62.3157   88.3668   16.6867 O.3     1  UNL1       -0.3517
     25 C          63.2724   85.9514   16.7144 C.3     1  UNL1        0.0346
     26 C          62.8567   87.1925   17.4472 C.3     1  UNL1        0.1423
@<TRIPOS>BOND
     1    25    26    1
     2    26    24    1
     3    24    23    1
     4    23    22    1
     5    22     1    1
     6     1     2   ar
     7     2    10    1
     8    10    11    1
     9    11    12    1
    10    12    13    1
    11    13    14    1
    12    14    16    1
    13    16    17    1
    14    17    18    1
    15    18    19    1
    16    19    20    1
    17    20    21    1
    18    14    15    1
    19     2     3   ar
    20     3     4   ar
    21     4     5   ar
    22     5     6   ar
    23     6     7   ar
    24     7     8   ar
    25     8     9   ar
    26     9     1   ar
    27    15    10    1
    28     9     4   ar
    29    21    16    1
@<TRIPOS>MOLECULE
*****
 26 29 0 0 0
SMALL
GASTEIGER

@<TRIPOS>ATOM
      1 N          62.6150   85.0572   10.6019 N.ar    1  UNL1       -0.3123
      2 C          62.2379   86.0275   11.6819 C.ar    1  UNL1        0.1213
      3 N          62.2350   85.2894   12.9877 N.ar    1  UNL1       -0.2309
      4 C          62.6104   83.8630   12.7148 C.ar    1  UNL1        0.0983
      5 C          62.7686   82.6763   13.6184 C.ar    1  UNL1        0.0206
      6 C          63.1618   81.3461   13.0476 C.ar    1  UNL1        0.0016
      7 C          63.3967   81.2026   11.5730 C.ar    1  UNL1        0.0016
      8 C          63.2384   82.3893   10.6694 C.ar    1  UNL1        0.0188
      9 C          62.8453   83.7195   11.2403 C.ar    1  UNL1        0.0787
     10 C          61.9195   87.4806   11.4897 C.3     1  UNL1        0.0729
     11 C          60.5346   87.8990   11.0934 C.3     1  UNL1        0.0103
     12 C          60.2162   89.3522   10.9013 C.3     1  UNL1        0.0178
     13 C          61.2827   90.3870   11.1055 C.3     1  UNL1        0.0721
     14 N          62.6676   89.9686   11.5017 N.3     1  UNL1       -0.2736
     15 C          62.9859   88.5154   11.6939 C.3     1  UNL1        0.0795
     16 C          63.7341   91.0035   11.7059 C.3     1  UNL1        0.0575
     17 C          64.1686   91.8689   10.5603 C.3     1  UNL1        0.0160
     18 C          65.2351   92.9037   10.7645 C.3     1  UNL1        0.0014
     19 C          65.8672   93.0731   12.1142 C.3     1  UNL1        0.0001
     20 C          65.4327   92.2077   13.2598 C.3     1  UNL1        0.0014
     21 C          64.3662   91.1729   13.0556 C.3     1  UNL1        0.0160
     22 C          62.7400   85.3697    9.1402 C.3     1  UNL1        0.1392
     23 C          61.7824   86.3257    8.4930 C.3     1  UNL1        0.1666
     24 O          60.5522   85.8071    7.8090 O.3     1  UNL1       -0.3517
     25 C          59.2775   88.0533    7.5265 C.3     1  UNL1        0.0346
     26 C          59.2753   86.5922    7.8657 C.3     1  UNL1        0.1423
@<TRIPOS>BOND
     1    25    26    1
     2    26    24    1
     3    24    23    1
     4    23    22    1
     5    22     1    1
     6     1     2   ar
     7     2    10    1
     8    10    11    1
     9    11    12    1
    10    12    13    1
    11    13    14    1
    12    14    16    1
    13    16    17    1
    14    17    18    1
    15    18    19    1
    16    19    20    1
    17    20    21    1
    18    14    15    1
    19     2     3   ar
    20     3     4   ar
    21     4     5   ar
    22     5     6   ar
    23     6     7   ar
    24     7     8   ar
    25     8     9   ar
    26     9     1   ar
    27    15    10    1
    28     9     4   ar
    29    21    16    1
@<TRIPOS>MOLECULE
*****
 26 29 0 0 0
SMALL
GASTEIGER

@<TRIPOS>ATOM
      1 N          62.0813   88.2002   10.5967 N.ar    1  UNL1       -0.3123
      2 C          62.3052   89.6807   10.5074 C.ar    1  UNL1        0.1213
      3 N          61.3970   90.2235    9.4442 N.ar    1  UNL1       -0.2309
      4 C          60.6118   89.0786    8.8764 C.ar    1  UNL1        0.0983
      5 C          59.5663   89.0131    7.8028 C.ar    1  UNL1        0.0206
      6 C          58.9438   87.6971    7.4415 C.ar    1  UNL1        0.0016
      7 C          59.3667   86.4466    8.1538 C.ar    1  UNL1        0.0016
      8 C          60.4121   86.5121    9.2274 C.ar    1  UNL1        0.0188
      9 C          61.0347   87.8281    9.5887 C.ar    1  UNL1        0.0787
     10 C          63.2683   90.4783   11.3359 C.3     1  UNL1        0.0729
     11 C          63.3562   90.2461   12.8152 C.3     1  UNL1        0.0103
     12 C          64.3193   91.0438   13.6436 C.3     1  UNL1        0.0178
     13 C          65.1944   92.0736   12.9928 C.3     1  UNL1        0.0721
     14 N          65.1065   92.3058   11.5135 N.3     1  UNL1       -0.2736
     15 C          64.1434   91.5082   10.6851 C.3     1  UNL1        0.0795
     16 C          65.9816   93.3356   10.8626 C.3     1  UNL1        0.0575
     17 C          65.7676   94.7920   11.1508 C.3     1  UNL1        0.0160
     18 C          66.6426   95.8219   10.5000 C.3     1  UNL1        0.0014
     19 C          67.7318   95.3953    9.5609 C.3     1  UNL1        0.0001
     20 C          67.9459   93.9389    9.2727 C.3     1  UNL1        0.0014
     21 C          67.0707   92.9091    9.9236 C.3     1  UNL1        0.0160
     22 C          62.7811   87.2574   11.5302 C.3     1  UNL1        0.1392
     23 C          62.3812   85.8125   11.5758 C.3     1  UNL1        0.1666
     24 O          63.2971   84.8000   12.1971 O.3     1  UNL1       -0.3517
     25 C          64.2530   83.0823   10.4983 C.3     1  UNL1        0.0346
     26 C          63.3507   83.4033   11.6528 C.3     1  UNL1        0.1423
@<TRIPOS>BOND
     1    25    26    1
     2    26    24    1
     3    24    23    1
     4    23    22    1
     5    22     1    1
     6     1     2   ar
     7     2    10    1
     8    10    11    1
     9    11    12    1
    10    12    13    1
    11    13    14    1
    12    14    16    1
    13    16    17    1
    14    17    18    1
    15    18    19    1
    16    19    20    1
    17    20    21    1
    18    14    15    1
    19     2     3   ar
    20     3     4   ar
    21     4     5   ar
    22     5     6   ar
    23     6     7   ar
    24     7     8   ar
    25     8     9   ar
    26     9     1   ar
    27    15    10    1
    28     9     4   ar
    29    21    16    1
@<TRIPOS>MOLECULE
*****
 26 29 0 0 0
SMALL
GASTEIGER

@<TRIPOS>ATOM
      1 N          63.0414   84.6186   13.0207 N.ar    1  UNL1       -0.3123
      2 C          63.2279   84.8829   14.4854 C.ar    1  UNL1        0.1213
      3 N          63.2824   83.5607   15.1917 N.ar    1  UNL1       -0.2309
      4 C          63.1294   82.4792   14.1635 C.ar    1  UNL1        0.0983
      5 C          63.1065   80.9837   14.2756 C.ar    1  UNL1        0.0206
      6 C          62.9347   80.1419   13.0461 C.ar    1  UNL1        0.0016
      7 C          62.7858   80.7958   11.7043 C.ar    1  UNL1        0.0016
      8 C          62.8087   82.2914   11.5921 C.ar    1  UNL1        0.0188
      9 C          62.9805   83.1331   12.8217 C.ar    1  UNL1        0.0787
     10 C          63.3403   86.2324   15.1306 C.3     1  UNL1        0.0729
     11 C          62.9875   86.4032   16.5784 C.3     1  UNL1        0.0103
     12 C          63.1000   87.7527   17.2236 C.3     1  UNL1        0.0178
     13 C          63.5652   88.9314   16.4209 C.3     1  UNL1        0.0721
     14 N          63.9180   88.7605   14.9731 N.3     1  UNL1       -0.2736
     15 C          63.8056   87.4110   14.3279 C.3     1  UNL1        0.0795
     16 C          64.3832   89.9392   14.1703 C.3     1  UNL1        0.0575
     17 C          65.5368   90.7673   14.6534 C.3     1  UNL1        0.0160
     18 C          66.0021   91.9459   13.8507 C.3     1  UNL1        0.0014
     19 C          65.3137   92.2965   12.5648 C.3     1  UNL1        0.0001
     20 C          64.1601   91.4683   12.0817 C.3     1  UNL1        0.0014
     21 C          63.6949   90.2896   12.8845 C.3     1  UNL1        0.0160
     22 C          62.9345   85.6575   11.9440 C.3     1  UNL1        0.1392
     23 C          61.6293   85.8736   11.2372 C.3     1  UNL1        0.1666
     24 O          60.7457   87.0211   11.6280 O.3     1  UNL1       -0.3517
     25 C          61.8525   88.6571    9.9402 C.3     1  UNL1        0.0346
     26 C          60.6638   88.2365   10.7527 C.3     1  UNL1        0.1423
@<TRIPOS>BOND
     1    25    26    1
     2    26    24    1
     3    24    23    1
     4    23    22    1
     5    22     1    1
     6     1     2   ar
     7     2    10    1
     8    10    11    1
     9    11    12    1
    10    12    13    1
    11    13    14    1
    12    14    16    1
    13    16    17    1
    14    17    18    1
    15    18    19    1
    16    19    20    1
    17    20    21    1
    18    14    15    1
    19     2     3   ar
    20     3     4   ar
    21     4     5   ar
    22     5     6   ar
    23     6     7   ar
    24     7     8   ar
    25     8     9   ar
    26     9     1   ar
    27    15    10    1
    28     9     4   ar
    29    21    16    1
@<TRIPOS>MOLECULE
*****
 26 29 0 0 0
SMALL
GASTEIGER

@<TRIPOS>ATOM
      1 N          64.2851   90.7305   12.6933 N.ar    1  UNL1       -0.3123
      2 C          63.4879   90.3431   11.4831 C.ar    1  UNL1        0.1213
      3 N          63.6958   91.3956   10.4348 N.ar    1  UNL1       -0.2309
      4 C          64.6214   92.4334   10.9969 C.ar    1  UNL1        0.0983
      5 C          65.1796   93.6996   10.4182 C.ar    1  UNL1        0.0206
      6 C          66.1021   94.5548   11.2352 C.ar    1  UNL1        0.0016
      7 C          66.4663   94.1438   12.6311 C.ar    1  UNL1        0.0016
      8 C          65.9081   92.8776   13.2099 C.ar    1  UNL1        0.0188
      9 C          64.9856   92.0224   12.3928 C.ar    1  UNL1        0.0787
     10 C          62.6330   89.1183   11.3456 C.3     1  UNL1        0.0729
     11 C          61.2816   89.2153   10.7019 C.3     1  UNL1        0.0103
     12 C          60.4267   87.9905   10.5643 C.3     1  UNL1        0.0178
     13 C          60.9231   86.6686   11.0704 C.3     1  UNL1        0.0721
     14 N          62.2745   86.5716   11.7141 N.3     1  UNL1       -0.2736
     15 C          63.1294   87.7964   11.8517 C.3     1  UNL1        0.0795
     16 C          62.7710   85.2497   12.2203 C.3     1  UNL1        0.0575
     17 C          63.5975   85.1878   13.4705 C.3     1  UNL1        0.0160
     18 C          64.0940   83.8660   13.9767 C.3     1  UNL1        0.0014
     19 C          63.7639   82.6060   13.2326 C.3     1  UNL1        0.0001
     20 C          62.9374   82.6679   11.9824 C.3     1  UNL1        0.0014
     21 C          62.4409   83.9898   11.4763 C.3     1  UNL1        0.0160
     22 C          64.3673   89.9611   13.9783 C.3     1  UNL1        0.1392
     23 C          63.5264   90.3686   15.1516 C.3     1  UNL1        0.1666
     24 O          63.6505   91.7515   15.7192 O.3     1  UNL1       -0.3517
     25 C          66.0532   92.5133   16.3492 C.3     1  UNL1        0.0346
     26 C          64.6892   92.0442   16.7610 C.3     1  UNL1        0.1423
@<TRIPOS>BOND
     1    25    26    1
     2    26    24    1
     3    24    23    1
     4    23    22    1
     5    22     1    1
     6     1     2   ar
     7     2    10    1
     8    10    11    1
     9    11    12    1
    10    12    13    1
    11    13    14    1
    12    14    16    1
    13    16    17    1
    14    17    18    1
    15    18    19    1
    16    19    20    1
    17    20    21    1
    18    14    15    1
    19     2     3   ar
    20     3     4   ar
    21     4     5   ar
    22     5     6   ar
    23     6     7   ar
    24     7     8   ar
    25     8     9   ar
    26     9     1   ar
    27    15    10    1
    28     9     4   ar
    29    21    16    1
@<TRIPOS>MOLECULE
*****
 26 29 0 0 0
SMALL
GASTEIGER

@<TRIPOS>ATOM
      1 N          64.0511   90.6047   12.5591 N.ar    1  UNL1       -0.3123
      2 C          63.1581   90.6217   11.3540 C.ar    1  UNL1        0.1213
      3 N          63.5533   91.7905   10.5008 N.ar    1  UNL1       -0.2309
      4 C          64.6905   92.4958   11.1786 C.ar    1  UNL1        0.0983
      5 C          65.4855   93.7106   10.8018 C.ar    1  UNL1        0.0206
      6 C          66.5883   94.1925   11.6972 C.ar    1  UNL1        0.0016
      7 C          66.8959   93.4597   12.9693 C.ar    1  UNL1        0.0016
      8 C          66.1009   92.2449   13.3461 C.ar    1  UNL1        0.0188
      9 C          64.9981   91.7629   12.4507 C.ar    1  UNL1        0.0787
     10 C          62.0624   89.6421   11.0546 C.3     1  UNL1        0.0729
     11 C          60.7598   89.7247   11.7938 C.3     1  UNL1        0.0103
     12 C          59.6641   88.7450   11.4944 C.3     1  UNL1        0.0178
     13 C          59.8709   87.6827   10.4558 C.3     1  UNL1        0.0721
     14 N          61.1735   87.6001    9.7166 N.3     1  UNL1       -0.2736
     15 C          62.2692   88.5798   10.0160 C.3     1  UNL1        0.0795
     16 C          61.3804   86.5377    8.6780 C.3     1  UNL1        0.0575
     17 C          62.7131   85.8609    8.5527 C.3     1  UNL1        0.0160
     18 C          62.9201   84.7986    7.5141 C.3     1  UNL1        0.0014
     19 C          61.7943   84.4131    6.6008 C.3     1  UNL1        0.0001
     20 C          60.4615   85.0899    6.7262 C.3     1  UNL1        0.0014
     21 C          60.2546   86.1523    7.7648 C.3     1  UNL1        0.0160
     22 C          64.0051   89.6050   13.6764 C.3     1  UNL1        0.1392
     23 C          64.1221   90.0646   15.0994 C.3     1  UNL1        0.1666
     24 O          63.5277   91.3777   15.5148 O.3     1  UNL1       -0.3517
     25 C          65.6423   92.4731   16.5534 C.3     1  UNL1        0.0346
     26 C          64.1719   92.1811   16.6054 C.3     1  UNL1        0.1423
@<TRIPOS>BOND
     1    25    26    1
     2    26    24    1
     3    24    23    1
     4    23    22    1
     5    22     1    1
     6     1     2   ar
     7     2    10    1
     8    10    11    1
     9    11    12    1
    10    12    13    1
    11    13    14    1
    12    14    16    1
    13    16    17    1
    14    17    18    1
    15    18    19    1
    16    19    20    1
    17    20    21    1
    18    14    15    1
    19     2     3   ar
    20     3     4   ar
    21     4     5   ar
    22     5     6   ar
    23     6     7   ar
    24     7     8   ar
    25     8     9   ar
    26     9     1   ar
    27    15    10    1
    28     9     4   ar
    29    21    16    1
@<TRIPOS>MOLECULE
*****
 26 29 0 0 0
SMALL
GASTEIGER

@<TRIPOS>ATOM
      1 N          61.7372   87.0237   10.6961 N.ar    1  UNL1       -0.3123
      2 C          62.2008   88.3635   11.1861 C.ar    1  UNL1        0.1213
      3 N          61.5897   89.4149   10.3081 N.ar    1  UNL1       -0.2309
      4 C          60.7484   88.7251    9.2755 C.ar    1  UNL1        0.0983
      5 C          59.9111   89.2517    8.1479 C.ar    1  UNL1        0.0206
      6 C          59.1650   88.3004    7.2600 C.ar    1  UNL1        0.0016
      7 C          59.2561   86.8225    7.4998 C.ar    1  UNL1        0.0016
      8 C          60.0934   86.2959    8.6275 C.ar    1  UNL1        0.0188
      9 C          60.8395   87.2472    9.5153 C.ar    1  UNL1        0.0787
     10 C          63.1150   88.6087   12.3498 C.3     1  UNL1        0.0729
     11 C          63.3370   87.5310   13.3692 C.3     1  UNL1        0.0103
     12 C          64.2512   87.7762   14.5329 C.3     1  UNL1        0.0178
     13 C          64.9434   89.0991   14.6771 C.3     1  UNL1        0.0721
     14 N          64.7214   90.1767   13.6577 N.3     1  UNL1       -0.2736
     15 C          63.8072   89.9315   12.4940 C.3     1  UNL1        0.0795
     16 C          65.4136   91.4997   13.8019 C.3     1  UNL1        0.0575
     17 C          65.4665   92.4488   12.6416 C.3     1  UNL1        0.0160
     18 C          66.1586   93.7717   12.7857 C.3     1  UNL1        0.0014
     19 C          66.7979   94.1456   14.0902 C.3     1  UNL1        0.0001
     20 C          66.7450   93.1964   15.2505 C.3     1  UNL1        0.0014
     21 C          66.0528   91.8735   15.1063 C.3     1  UNL1        0.0160
     22 C          62.1064   85.6939   11.2838 C.3     1  UNL1        0.1392
     23 C          62.9159   84.7183   10.4821 C.3     1  UNL1        0.1666
     24 O          63.8442   83.7656   11.1753 O.3     1  UNL1       -0.3517
     25 C          62.4348   81.9862   12.4391 C.3     1  UNL1        0.0346
     26 C          63.4263   83.1116   12.4589 C.3     1  UNL1        0.1423
@<TRIPOS>BOND
     1    25    26    1
     2    26    24    1
     3    24    23    1
     4    23    22    1
     5    22     1    1
     6     1     2   ar
     7     2    10    1
     8    10    11    1
     9    11    12    1
    10    12    13    1
    11    13    14    1
    12    14    16    1
    13    16    17    1
    14    17    18    1
    15    18    19    1
    16    19    20    1
    17    20    21    1
    18    14    15    1
    19     2     3   ar
    20     3     4   ar
    21     4     5   ar
    22     5     6   ar
    23     6     7   ar
    24     7     8   ar
    25     8     9   ar
    26     9     1   ar
    27    15    10    1
    28     9     4   ar
    29    21    16    1
