@<TRIPOS>MOLECULE
*****
 18 19 0 0 0
SMALL
GASTEIGER

@<TRIPOS>ATOM
      1 C          61.6105   85.7810   10.9805 C.2     1  UNL1        0.0063
      2 C          61.1032   86.0332    9.5916 C.2     1  UNL1        0.0436
      3 C          62.9657   84.2932   12.6236 C.ar    1  UNL1        0.1386
      4 C          63.9916   83.2259   12.8650 C.ar    1  UNL1        0.0369
      5 C          64.6883   82.5791   11.7047 C.ar    1  UNL1        0.0031
      6 C          64.3591   82.9995   10.3030 C.ar    1  UNL1        0.0002
      7 C          63.3331   84.0668   10.0616 C.ar    1  UNL1        0.0030
      8 C          62.6365   84.7137   11.2219 C.ar    1  UNL1        0.0341
      9 C          62.3521   84.3217   15.1480 C.3     1  UNL1        0.2525
     10 O          62.2690   84.9400   13.7839 O.3     1  UNL1       -0.4714
     11 C          60.0773   87.1005    9.3501 C.2     1  UNL1        0.2111
     12 O          59.1365   86.9872    8.1873 O.2     1  UNL1       -0.2850
     13 C          59.9922   88.2812   10.2714 C.ar    1  UNL1        0.0961
     14 C          60.3445   89.6974    9.9245 C.ar    1  UNL1        0.0218
     15 C          60.1099   90.5445   11.1400 C.ar    1  UNL1        0.0200
     16 C          59.6125   89.6518   12.2381 C.ar    1  UNL1        0.0725
     17 N          59.5398   88.2531   11.7012 N.ar    1  UNL1       -0.3495
     18 H          59.2467   87.4564   12.1998 H       1  UNL1        0.1661
@<TRIPOS>BOND
     1     9    10    1
     2    10     3    1
     3     3     4   ar
     4     4     5   ar
     5     5     6   ar
     6     6     7   ar
     7     7     8   ar
     8     8     1    1
     9     1     2    2
    10     2    11    1
    11    11    12    2
    12    11    13    1
    13    13    14   ar
    14    14    15   ar
    15    15    16   ar
    16    16    17   ar
    17     8     3   ar
    18    17    13   ar
    19    17    18    1
@<TRIPOS>MOLECULE
*****
 18 19 0 0 0
SMALL
GASTEIGER

@<TRIPOS>ATOM
      1 C          62.0299   85.3085   11.0038 C.2     1  UNL1        0.0063
      2 C          63.1553   84.5266   10.3938 C.2     1  UNL1        0.0436
      3 C          61.8799   87.8933   10.7886 C.ar    1  UNL1        0.1386
      4 C          61.3477   89.1100   10.0912 C.ar    1  UNL1        0.0369
      5 C          60.4332   88.9587    8.9119 C.ar    1  UNL1        0.0031
      6 C          60.0510   87.5907    8.4298 C.ar    1  UNL1        0.0002
      7 C          60.5832   86.3740    9.1271 C.ar    1  UNL1        0.0030
      8 C          61.4977   86.5253   10.3065 C.ar    1  UNL1        0.0341
      9 C          63.2093   89.4117   12.4247 C.3     1  UNL1        0.2525
     10 O          62.7943   88.0446   11.9679 O.3     1  UNL1       -0.4714
     11 C          63.6875   83.3098   11.0911 C.2     1  UNL1        0.2111
     12 O          64.8084   82.5240   10.4777 O.2     1  UNL1       -0.2850
     13 C          63.0989   82.8789   12.4017 C.ar    1  UNL1        0.0961
     14 C          62.2706   81.6503   12.6348 C.ar    1  UNL1        0.0218
     15 C          61.8950   81.6129   14.0865 C.ar    1  UNL1        0.0200
     16 C          62.4913   82.8184   14.7508 C.ar    1  UNL1        0.0725
     17 N          63.2354   83.6008   13.7095 N.ar    1  UNL1       -0.3495
     18 H          63.7270   84.4407   13.8583 H       1  UNL1        0.1661
@<TRIPOS>BOND
     1     9    10    1
     2    10     3    1
     3     3     4   ar
     4     4     5   ar
     5     5     6   ar
     6     6     7   ar
     7     7     8   ar
     8     8     1    1
     9     1     2    2
    10     2    11    1
    11    11    12    2
    12    11    13    1
    13    13    14   ar
    14    14    15   ar
    15    15    16   ar
    16    16    17   ar
    17     8     3   ar
    18    17    13   ar
    19    17    18    1
@<TRIPOS>MOLECULE
*****
 18 19 0 0 0
SMALL
GASTEIGER

@<TRIPOS>ATOM
      1 C          62.8998   85.0436   11.5803 C.2     1  UNL1        0.0063
      2 C          61.7043   85.8949   11.2703 C.2     1  UNL1        0.0436
      3 C          62.6649   83.8865   13.8946 C.ar    1  UNL1        0.1386
      4 C          62.5059   82.6399   14.7134 C.ar    1  UNL1        0.0369
      5 C          62.4227   81.3037   14.0369 C.ar    1  UNL1        0.0031
      6 C          62.4986   81.2141   12.5415 C.ar    1  UNL1        0.0002
      7 C          62.6576   82.4608   11.7227 C.ar    1  UNL1        0.0030
      8 C          62.7408   83.7970   12.3992 C.ar    1  UNL1        0.0341
      9 C          64.0206   85.6449   15.2436 C.3     1  UNL1        0.2525
     10 O          62.7481   85.2227   14.5711 O.3     1  UNL1       -0.4714
     11 C          61.8633   87.1415   10.4514 C.2     1  UNL1        0.2111
     12 O          61.4515   87.1490    9.0090 O.2     1  UNL1       -0.2850
     13 C          62.4340   88.3807   11.0749 C.ar    1  UNL1        0.0961
     14 C          62.5323   89.7294   10.4257 C.ar    1  UNL1        0.0218
     15 C          63.1657   90.6710   11.4066 C.ar    1  UNL1        0.0200
     16 C          63.4590   89.9043   12.6620 C.ar    1  UNL1        0.0725
     17 N          63.0068   88.4888   12.4570 N.ar    1  UNL1       -0.3495
     18 H          63.0741   87.7589   13.1142 H       1  UNL1        0.1661
@<TRIPOS>BOND
     1     9    10    1
     2    10     3    1
     3     3     4   ar
     4     4     5   ar
     5     5     6   ar
     6     6     7   ar
     7     7     8   ar
     8     8     1    1
     9     1     2    2
    10     2    11    1
    11    11    12    2
    12    11    13    1
    13    13    14   ar
    14    14    15   ar
    15    15    16   ar
    16    16    17   ar
    17     8     3   ar
    18    17    13   ar
    19    17    18    1
@<TRIPOS>MOLECULE
*****
 18 19 0 0 0
SMALL
GASTEIGER

@<TRIPOS>ATOM
      1 C          62.7749   85.3573   12.0010 C.2     1  UNL1        0.0063
      2 C          61.6150   85.8556   11.1907 C.2     1  UNL1        0.0436
      3 C          62.6160   83.7301   14.0202 C.ar    1  UNL1        0.1386
      4 C          62.6053   82.3323   14.5643 C.ar    1  UNL1        0.0369
      5 C          62.7426   81.1641   13.6336 C.ar    1  UNL1        0.0031
      6 C          62.8907   81.3935   12.1587 C.ar    1  UNL1        0.0002
      7 C          62.9014   82.7912   11.6145 C.ar    1  UNL1        0.0030
      8 C          62.7641   83.9595   12.5453 C.ar    1  UNL1        0.0341
      9 C          63.6769   85.4099   15.6943 C.3     1  UNL1        0.2525
     10 O          62.4787   84.8984   14.9509 O.3     1  UNL1       -0.4714
     11 C          61.6258   87.2533   10.6465 C.2     1  UNL1        0.2111
     12 O          62.5018   88.2962   11.2750 O.2     1  UNL1       -0.2850
     13 C          60.7605   87.6082    9.4737 C.ar    1  UNL1        0.0961
     14 C          59.9804   86.6441    8.6298 C.ar    1  UNL1        0.0218
     15 C          59.2612   87.4295    7.5735 C.ar    1  UNL1        0.0200
     16 C          59.5967   88.8790    7.7645 C.ar    1  UNL1        0.0725
     17 N          60.5233   88.9894    8.9389 N.ar    1  UNL1       -0.3495
     18 H          60.9082   89.8222    9.2960 H       1  UNL1        0.1661
@<TRIPOS>BOND
     1     9    10    1
     2    10     3    1
     3     3     4   ar
     4     4     5   ar
     5     5     6   ar
     6     6     7   ar
     7     7     8   ar
     8     8     1    1
     9     1     2    2
    10     2    11    1
    11    11    12    2
    12    11    13    1
    13    13    14   ar
    14    14    15   ar
    15    15    16   ar
    16    16    17   ar
    17     8     3   ar
    18    17    13   ar
    19    17    18    1
@<TRIPOS>MOLECULE
*****
 18 19 0 0 0
SMALL
GASTEIGER

@<TRIPOS>ATOM
      1 C          63.0667   84.2215   11.0067 C.2     1  UNL1        0.0063
      2 C          62.0177   85.2293   10.6404 C.2     1  UNL1        0.0436
      3 C          62.7403   83.7262   13.5362 C.ar    1  UNL1        0.1386
      4 C          62.4872   82.7501   14.6466 C.ar    1  UNL1        0.0369
      5 C          62.3074   81.2932   14.3381 C.ar    1  UNL1        0.0031
      6 C          62.3808   80.8124   12.9192 C.ar    1  UNL1        0.0002
      7 C          62.6338   81.7885   11.8088 C.ar    1  UNL1        0.0030
      8 C          62.8136   83.2454   12.1172 C.ar    1  UNL1        0.0341
      9 C          64.0496   85.6296   14.7248 C.3     1  UNL1        0.2525
     10 O          62.9200   85.1831   13.8446 O.3     1  UNL1       -0.4714
     11 C          62.2708   86.2053    9.5299 C.2     1  UNL1        0.2111
     12 O          63.0568   85.7825    8.3243 O.2     1  UNL1       -0.2850
     13 C          61.7378   87.6042    9.6250 C.ar    1  UNL1        0.0961
     14 C          62.3450   88.7275   10.4121 C.ar    1  UNL1        0.0218
     15 C          61.4865   89.9430   10.2232 C.ar    1  UNL1        0.0200
     16 C          60.3488   89.5709    9.3193 C.ar    1  UNL1        0.0725
     17 N          60.5041   88.1255    8.9496 N.ar    1  UNL1       -0.3495
     18 H          59.9020   87.6096    8.3660 H       1  UNL1        0.1661
@<TRIPOS>BOND
     1     9    10    1
     2    10     3    1
     3     3     4   ar
     4     4     5   ar
     5     5     6   ar
     6     6     7   ar
     7     7     8   ar
     8     8     1    1
     9     1     2    2
    10     2    11    1
    11    11    12    2
    12    11    13    1
    13    13    14   ar
    14    14    15   ar
    15    15    16   ar
    16    16    17   ar
    17     8     3   ar
    18    17    13   ar
    19    17    18    1
@<TRIPOS>MOLECULE
*****
 18 19 0 0 0
SMALL
GASTEIGER

@<TRIPOS>ATOM
      1 C          62.4601   85.6469   10.1420 C.2     1  UNL1        0.0063
      2 C          62.7556   84.9003   11.4090 C.2     1  UNL1        0.0436
      3 C          60.8016   87.4588    9.2957 C.ar    1  UNL1        0.1386
      4 C          60.2631   88.8575    9.3576 C.ar    1  UNL1        0.0369
      5 C          60.8446   89.8428   10.3277 C.ar    1  UNL1        0.0031
      6 C          61.9646   89.4295   11.2358 C.ar    1  UNL1        0.0002
      7 C          62.5030   88.0309   11.1739 C.ar    1  UNL1        0.0030
      8 C          61.9216   87.0455   10.2039 C.ar    1  UNL1        0.0341
      9 C          58.9422   86.7925    7.6080 C.3     1  UNL1        0.2525
     10 O          60.2201   86.4735    8.3256 O.3     1  UNL1       -0.4714
     11 C          63.2941   83.5017   11.3472 C.2     1  UNL1        0.2111
     12 O          64.3164   83.1367   10.3120 O.2     1  UNL1       -0.2850
     13 C          62.8103   82.4680   12.3206 C.ar    1  UNL1        0.0961
     14 C          62.7871   80.9855   12.0935 C.ar    1  UNL1        0.0218
     15 C          62.2273   80.3366   13.3246 C.ar    1  UNL1        0.0200
     16 C          61.9044   81.4181   14.3126 C.ar    1  UNL1        0.0725
     17 N          62.2647   82.7354   13.6921 N.ar    1  UNL1       -0.3495
     18 H          62.1613   83.6201   14.1114 H       1  UNL1        0.1661
@<TRIPOS>BOND
     1     9    10    1
     2    10     3    1
     3     3     4   ar
     4     4     5   ar
     5     5     6   ar
     6     6     7   ar
     7     7     8   ar
     8     8     1    1
     9     1     2    2
    10     2    11    1
    11    11    12    2
    12    11    13    1
    13    13    14   ar
    14    14    15   ar
    15    15    16   ar
    16    16    17   ar
    17     8     3   ar
    18    17    13   ar
    19    17    18    1
@<TRIPOS>MOLECULE
*****
 18 19 0 0 0
SMALL
GASTEIGER

@<TRIPOS>ATOM
      1 C          63.3413   90.2277   11.5342 C.2     1  UNL1        0.0063
      2 C          63.8980   91.4096   10.7971 C.2     1  UNL1        0.0436
      3 C          62.1219   87.9460   11.2959 C.ar    1  UNL1        0.1386
      4 C          61.0530   87.1040   10.6647 C.ar    1  UNL1        0.0369
      5 C          60.1345   87.7018    9.6404 C.ar    1  UNL1        0.0031
      6 C          60.2850   89.1415    9.2474 C.ar    1  UNL1        0.0002
      7 C          61.3539   89.9835    9.8787 C.ar    1  UNL1        0.0030
      8 C          62.2723   89.3857   10.9029 C.ar    1  UNL1        0.0341
      9 C          63.0611   85.8636   12.5335 C.3     1  UNL1        0.2525
     10 O          63.0403   87.3482   12.3202 O.3     1  UNL1       -0.4714
     11 C          64.9669   92.2516   11.4283 C.2     1  UNL1        0.2111
     12 O          64.9775   92.4607   12.9137 O.2     1  UNL1       -0.2850
     13 C          66.0252   92.8845   10.5742 C.ar    1  UNL1        0.0961
     14 C          67.3937   92.3299   10.3104 C.ar    1  UNL1        0.0218
     15 C          68.1151   93.2857    9.4071 C.ar    1  UNL1        0.0200
     16 C          67.1924   94.4311    9.1126 C.ar    1  UNL1        0.0725
     17 N          65.9008   94.1831    9.8339 N.ar    1  UNL1       -0.3495
     18 H          65.1102   94.7698    9.8233 H       1  UNL1        0.1661
@<TRIPOS>BOND
     1     9    10    1
     2    10     3    1
     3     3     4   ar
     4     4     5   ar
     5     5     6   ar
     6     6     7   ar
     7     7     8   ar
     8     8     1    1
     9     1     2    2
    10     2    11    1
    11    11    12    2
    12    11    13    1
    13    13    14   ar
    14    14    15   ar
    15    15    16   ar
    16    16    17   ar
    17     8     3   ar
    18    17    13   ar
    19    17    18    1
@<TRIPOS>MOLECULE
*****
 18 19 0 0 0
SMALL
GASTEIGER

@<TRIPOS>ATOM
      1 C          62.2613   88.5385   10.5382 C.2     1  UNL1        0.0063
      2 C          61.9049   89.7068   11.4089 C.2     1  UNL1        0.0436
      3 C          61.2533   86.5906    9.1454 C.ar    1  UNL1        0.1386
      4 C          60.2797   86.0977    8.1163 C.ar    1  UNL1        0.0369
      5 C          59.3405   87.0595    7.4509 C.ar    1  UNL1        0.0031
      6 C          59.3750   88.5143    7.8145 C.ar    1  UNL1        0.0002
      7 C          60.3486   89.0073    8.8436 C.ar    1  UNL1        0.0030
      8 C          61.2877   88.0454    9.5091 C.ar    1  UNL1        0.0341
      9 C          63.1926   84.8686    8.9913 C.3     1  UNL1        0.2525
     10 O          62.1924   85.6288    9.8109 O.3     1  UNL1       -0.4714
     11 C          62.8784   90.1998   12.4380 C.2     1  UNL1        0.2111
     12 O          62.8036   89.6893   13.8465 O.2     1  UNL1       -0.2850
     13 C          63.9267   91.2033   12.0586 C.ar    1  UNL1        0.0961
     14 C          64.1351   91.7873   10.6928 C.ar    1  UNL1        0.0218
     15 C          65.2879   92.7440   10.7685 C.ar    1  UNL1        0.0200
     16 C          65.7921   92.7513   12.1813 C.ar    1  UNL1        0.0725
     17 N          64.9508   91.7992   12.9786 N.ar    1  UNL1       -0.3495
     18 H          65.0529   91.6003   13.9373 H       1  UNL1        0.1661
@<TRIPOS>BOND
     1     9    10    1
     2    10     3    1
     3     3     4   ar
     4     4     5   ar
     5     5     6   ar
     6     6     7   ar
     7     7     8   ar
     8     8     1    1
     9     1     2    2
    10     2    11    1
    11    11    12    2
    12    11    13    1
    13    13    14   ar
    14    14    15   ar
    15    15    16   ar
    16    16    17   ar
    17     8     3   ar
    18    17    13   ar
    19    17    18    1
@<TRIPOS>MOLECULE
*****
 18 19 0 0 0
SMALL
GASTEIGER

@<TRIPOS>ATOM
      1 C          62.0345   85.7730   11.4687 C.2     1  UNL1        0.0063
      2 C          62.7564   84.4735   11.2679 C.2     1  UNL1        0.0436
      3 C          60.5847   87.7104   10.5228 C.ar    1  UNL1        0.1386
      4 C          59.8251   88.3295    9.3872 C.ar    1  UNL1        0.0369
      5 C          59.7556   87.6305    8.0619 C.ar    1  UNL1        0.0031
      6 C          60.4457   86.3123    7.8721 C.ar    1  UNL1        0.0002
      7 C          61.2053   85.6931    9.0077 C.ar    1  UNL1        0.0030
      8 C          61.2748   86.3922   10.3330 C.ar    1  UNL1        0.0341
      9 C          59.8660   89.6651   12.0760 C.3     1  UNL1        0.2525
     10 O          60.6542   88.4095   11.8481 O.3     1  UNL1       -0.4714
     11 C          63.5160   83.8543   12.4034 C.2     1  UNL1        0.2111
     12 O          64.4271   82.6900   12.1497 O.2     1  UNL1       -0.2850
     13 C          63.3646   84.3994   13.7926 C.ar    1  UNL1        0.0961
     14 C          62.3209   83.9929   14.7904 C.ar    1  UNL1        0.0218
     15 C          62.5416   84.7889   16.0424 C.ar    1  UNL1        0.0200
     16 C          63.7217   85.6874   15.8185 C.ar    1  UNL1        0.0725
     17 N          64.2303   85.4466   14.4281 N.ar    1  UNL1       -0.3495
     18 H          64.9976   85.8969   14.0066 H       1  UNL1        0.1661
@<TRIPOS>BOND
     1     9    10    1
     2    10     3    1
     3     3     4   ar
     4     4     5   ar
     5     5     6   ar
     6     6     7   ar
     7     7     8   ar
     8     8     1    1
     9     1     2    2
    10     2    11    1
    11    11    12    2
    12    11    13    1
    13    13    14   ar
    14    14    15   ar
    15    15    16   ar
    16    16    17   ar
    17     8     3   ar
    18    17    13   ar
    19    17    18    1
