@<TRIPOS>MOLECULE
*****
 21 23 0 0 0
SMALL
GASTEIGER

@<TRIPOS>ATOM
      1 C          63.0360   89.6341   12.5162 C.ar    1  UNL1        0.1386
      2 C          63.4983   90.9174   11.8921 C.ar    1  UNL1        0.0384
      3 C          64.6391   91.6785   12.4997 C.ar    1  UNL1        0.0207
      4 C          65.3176   91.1563   13.7314 C.ar    1  UNL1        0.0657
      5 C          64.8552   89.8731   14.3554 C.ar    1  UNL1        0.0207
      6 C          63.7144   89.1120   13.7478 C.ar    1  UNL1        0.0384
      7 N          66.4585   91.9174   14.3390 N.ar    1  UNL1       -0.2864
      8 C          66.4083   92.7189   15.6059 C.ar    1  UNL1        0.1022
      9 C          67.7686   93.3075   15.8363 C.ar    1  UNL1        0.1196
     10 N          68.6596   92.8697   14.7118 N.ar    1  UNL1       -0.2220
     11 C          67.8499   92.0106   13.7864 C.ar    1  UNL1        0.1828
     12 O          61.8951   88.8730   11.9085 O.3     1  UNL1       -0.4755
     13 C          61.9293   88.5041   10.4550 C.3     1  UNL1        0.2057
     14 C          61.9968   87.0618   10.0486 C.3     1  UNL1        0.0520
     15 C          61.7376   85.9848   11.0600 C.3     1  UNL1        0.0303
     16 C          64.1001   83.2802   12.7495 C.ar    1  UNL1        0.0986
     17 C          63.1259   84.4096   12.5902 C.ar    1  UNL1        0.0164
     18 C          62.7119   84.8553   11.2191 C.ar    1  UNL1       -0.0190
     19 C          63.2720   84.1716   10.0072 C.ar    1  UNL1        0.0164
     20 C          64.2462   83.0422   10.1665 C.ar    1  UNL1        0.0986
     21 N          64.6602   82.5965   11.5376 N.ar    1  UNL1       -0.2423
@<TRIPOS>BOND
     1    16    17   ar
     2    17    18   ar
     3    18    15    1
     4    15    14    1
     5    14    13    1
     6    13    12    1
     7    12     1    1
     8     1     2   ar
     9     2     3   ar
    10     3     4   ar
    11     4     7    1
    12     7     8   ar
    13     8     9   ar
    14     9    10   ar
    15    10    11   ar
    16     4     5   ar
    17     5     6   ar
    18    18    19   ar
    19    19    20   ar
    20    20    21   ar
    21    21    16   ar
    22     6     1   ar
    23    11     7   ar
@<TRIPOS>MOLECULE
*****
 21 23 0 0 0
SMALL
GASTEIGER

@<TRIPOS>ATOM
      1 C          63.0512   89.4801   12.5324 C.ar    1  UNL1        0.1386
      2 C          63.4945   90.7592   11.8864 C.ar    1  UNL1        0.0384
      3 C          64.6136   91.5554   12.4893 C.ar    1  UNL1        0.0207
      4 C          65.2896   91.0724   13.7382 C.ar    1  UNL1        0.0657
      5 C          64.8463   89.7932   14.3842 C.ar    1  UNL1        0.0207
      6 C          63.7272   88.9971   13.7813 C.ar    1  UNL1        0.0384
      7 N          66.4088   91.8686   14.3412 N.ar    1  UNL1       -0.2864
      8 C          66.3335   92.6835   15.5983 C.ar    1  UNL1        0.1022
      9 C          67.6779   93.3082   15.8269 C.ar    1  UNL1        0.1196
     10 N          68.5842   92.8792   14.7112 N.ar    1  UNL1       -0.2220
     11 C          67.7998   91.9895   13.7930 C.ar    1  UNL1        0.1828
     12 O          61.9320   88.6839   11.9294 O.3     1  UNL1       -0.4755
     13 C          62.2368   87.5425   11.0051 C.3     1  UNL1        0.2057
     14 C          61.6412   86.1900   11.2617 C.3     1  UNL1        0.0520
     15 C          62.5052   84.9655   11.1969 C.3     1  UNL1        0.0303
     16 C          63.0997   82.1253   13.9044 C.ar    1  UNL1        0.0986
     17 C          62.6755   82.8116   12.6399 C.ar    1  UNL1        0.0164
     18 C          62.9294   84.2792   12.4615 C.ar    1  UNL1       -0.0190
     19 C          63.6075   85.0605   13.5477 C.ar    1  UNL1        0.0164
     20 C          64.0317   84.3742   14.8122 C.ar    1  UNL1        0.0986
     21 N          63.7778   82.9066   14.9905 N.ar    1  UNL1       -0.2423
@<TRIPOS>BOND
     1    16    17   ar
     2    17    18   ar
     3    18    15    1
     4    15    14    1
     5    14    13    1
     6    13    12    1
     7    12     1    1
     8     1     2   ar
     9     2     3   ar
    10     3     4   ar
    11     4     7    1
    12     7     8   ar
    13     8     9   ar
    14     9    10   ar
    15    10    11   ar
    16     4     5   ar
    17     5     6   ar
    18    18    19   ar
    19    19    20   ar
    20    20    21   ar
    21    21    16   ar
    22     6     1   ar
    23    11     7   ar
@<TRIPOS>MOLECULE
*****
 21 23 0 0 0
SMALL
GASTEIGER

@<TRIPOS>ATOM
      1 C          62.0360   89.0878   11.4208 C.ar    1  UNL1        0.1386
      2 C          62.8802   89.2444   12.6508 C.ar    1  UNL1        0.0384
      3 C          63.8791   90.3600   12.7378 C.ar    1  UNL1        0.0207
      4 C          64.0339   91.3190   11.5949 C.ar    1  UNL1        0.0657
      5 C          63.1897   91.1624   10.3649 C.ar    1  UNL1        0.0207
      6 C          62.1908   90.0468   10.2779 C.ar    1  UNL1        0.0384
      7 N          65.0328   92.4346   11.6820 N.ar    1  UNL1       -0.2864
      8 C          65.4214   93.3592   10.5666 C.ar    1  UNL1        0.1022
      9 C          66.4472   94.3175   11.0949 C.ar    1  UNL1        0.1196
     10 N          66.6928   93.9852   12.5370 N.ar    1  UNL1       -0.2220
     11 C          65.8186   92.8215   12.8997 C.ar    1  UNL1        0.1828
     12 O          61.0371   87.9722   11.3338 O.3     1  UNL1       -0.4755
     13 C          60.4994   87.5494    9.9988 C.3     1  UNL1        0.2057
     14 C          60.9377   86.2501    9.3910 C.3     1  UNL1        0.0520
     15 C          62.3901   85.8752    9.3888 C.3     1  UNL1        0.0303
     16 C          63.0659   83.8579   12.7390 C.ar    1  UNL1        0.0986
     17 C          62.5609   84.9075   11.7939 C.ar    1  UNL1        0.0164
     18 C          62.8952   84.8255   10.3339 C.ar    1  UNL1       -0.0190
     19 C          63.7345   83.6940    9.8191 C.ar    1  UNL1        0.0164
     20 C          64.2395   82.6444   10.7641 C.ar    1  UNL1        0.0986
     21 N          63.9052   82.7263   12.2241 N.ar    1  UNL1       -0.2423
@<TRIPOS>BOND
     1    16    17   ar
     2    17    18   ar
     3    18    15    1
     4    15    14    1
     5    14    13    1
     6    13    12    1
     7    12     1    1
     8     1     2   ar
     9     2     3   ar
    10     3     4   ar
    11     4     7    1
    12     7     8   ar
    13     8     9   ar
    14     9    10   ar
    15    10    11   ar
    16     4     5   ar
    17     5     6   ar
    18    18    19   ar
    19    19    20   ar
    20    20    21   ar
    21    21    16   ar
    22     6     1   ar
    23    11     7   ar
@<TRIPOS>MOLECULE
*****
 21 23 0 0 0
SMALL
GASTEIGER

@<TRIPOS>ATOM
      1 C          62.3338   89.4514   10.4107 C.ar    1  UNL1        0.1386
      2 C          62.6409   88.8025   11.7278 C.ar    1  UNL1        0.0384
      3 C          63.5054   89.5100   12.7289 C.ar    1  UNL1        0.0207
      4 C          64.0627   90.8662   12.4129 C.ar    1  UNL1        0.0657
      5 C          63.7556   91.5151   11.0958 C.ar    1  UNL1        0.0207
      6 C          62.8911   90.8076   10.0947 C.ar    1  UNL1        0.0384
      7 N          64.9273   91.5737   13.4140 N.ar    1  UNL1       -0.2864
      8 C          65.8406   92.7292   13.1298 C.ar    1  UNL1        0.1022
      9 C          66.5080   93.1195   14.4152 C.ar    1  UNL1        0.1196
     10 N          66.0072   92.2053   15.4938 N.ar    1  UNL1       -0.2220
     11 C          65.0302   91.2499   14.8750 C.ar    1  UNL1        0.1828
     12 O          61.4693   88.7439    9.4097 O.3     1  UNL1       -0.4755
     13 C          60.5634   87.6335    9.8529 C.3     1  UNL1        0.2057
     14 C          60.9164   86.2088    9.5436 C.3     1  UNL1        0.0520
     15 C          62.3550   85.7879    9.4871 C.3     1  UNL1        0.0303
     16 C          64.2924   82.7239   11.1022 C.ar    1  UNL1        0.0986
     17 C          63.7491   83.6770   10.0793 C.ar    1  UNL1        0.0164
     18 C          62.8983   84.8348   10.5101 C.ar    1  UNL1       -0.0190
     19 C          62.5909   85.0395   11.9639 C.ar    1  UNL1        0.0164
     20 C          63.1342   84.0864   12.9868 C.ar    1  UNL1        0.0986
     21 N          63.9849   82.9286   12.5560 N.ar    1  UNL1       -0.2423
@<TRIPOS>BOND
     1    16    17   ar
     2    17    18   ar
     3    18    15    1
     4    15    14    1
     5    14    13    1
     6    13    12    1
     7    12     1    1
     8     1     2   ar
     9     2     3   ar
    10     3     4   ar
    11     4     7    1
    12     7     8   ar
    13     8     9   ar
    14     9    10   ar
    15    10    11   ar
    16     4     5   ar
    17     5     6   ar
    18    18    19   ar
    19    19    20   ar
    20    20    21   ar
    21    21    16   ar
    22     6     1   ar
    23    11     7   ar
@<TRIPOS>MOLECULE
*****
 21 23 0 0 0
SMALL
GASTEIGER

@<TRIPOS>ATOM
      1 C          62.3851   89.2770   10.9519 C.ar    1  UNL1        0.1386
      2 C          62.7582   90.4829   10.1416 C.ar    1  UNL1        0.0384
      3 C          63.7005   91.5040   10.7066 C.ar    1  UNL1        0.0207
      4 C          64.2698   91.3192   12.0821 C.ar    1  UNL1        0.0657
      5 C          63.8967   90.1133   12.8924 C.ar    1  UNL1        0.0207
      6 C          62.9544   89.0922   12.3273 C.ar    1  UNL1        0.0384
      7 N          65.2121   92.3403   12.6472 N.ar    1  UNL1       -0.2864
      8 C          65.7551   92.3607   14.0453 C.ar    1  UNL1        0.1022
      9 C          66.6555   93.5533   14.1756 C.ar    1  UNL1        0.1196
     10 N          66.6690   94.2700   12.8579 N.ar    1  UNL1       -0.2220
     11 C          65.7770   93.5204   11.9133 C.ar    1  UNL1        0.1828
     12 O          61.4427   88.2559   10.3868 O.3     1  UNL1       -0.4755
     13 C          61.9511   86.8983   10.0012 C.3     1  UNL1        0.2057
     14 C          61.6519   85.7114   10.8681 C.3     1  UNL1        0.0520
     15 C          62.6695   84.6203   11.0231 C.3     1  UNL1        0.0303
     16 C          63.7239   84.2453   14.8307 C.ar    1  UNL1        0.0986
     17 C          63.4755   84.8530   13.4821 C.ar    1  UNL1        0.0164
     18 C          62.9179   84.0125   12.3719 C.ar    1  UNL1       -0.0190
     19 C          62.6088   82.5642   12.6103 C.ar    1  UNL1        0.0164
     20 C          62.8572   81.9565   13.9589 C.ar    1  UNL1        0.0986
     21 N          63.4147   82.7970   15.0692 N.ar    1  UNL1       -0.2423
@<TRIPOS>BOND
     1    16    17   ar
     2    17    18   ar
     3    18    15    1
     4    15    14    1
     5    14    13    1
     6    13    12    1
     7    12     1    1
     8     1     2   ar
     9     2     3   ar
    10     3     4   ar
    11     4     7    1
    12     7     8   ar
    13     8     9   ar
    14     9    10   ar
    15    10    11   ar
    16     4     5   ar
    17     5     6   ar
    18    18    19   ar
    19    19    20   ar
    20    20    21   ar
    21    21    16   ar
    22     6     1   ar
    23    11     7   ar
@<TRIPOS>MOLECULE
*****
 21 23 0 0 0
SMALL
GASTEIGER

@<TRIPOS>ATOM
      1 C          63.8364   91.0523   12.3069 C.ar    1  UNL1        0.1386
      2 C          63.4626   89.6898   12.8108 C.ar    1  UNL1        0.0384
      3 C          62.7282   88.7350   11.9170 C.ar    1  UNL1        0.0207
      4 C          62.3676   89.1427   10.5193 C.ar    1  UNL1        0.0657
      5 C          62.7413   90.5052   10.0154 C.ar    1  UNL1        0.0207
      6 C          63.4757   91.4600   10.9092 C.ar    1  UNL1        0.0384
      7 N          61.6331   88.1879    9.6254 N.ar    1  UNL1       -0.2864
      8 C          62.0280   86.7701    9.3358 C.ar    1  UNL1        0.1022
      9 C          61.0138   86.1892    8.3956 C.ar    1  UNL1        0.1196
     10 N          59.9921   87.2481    8.1040 N.ar    1  UNL1       -0.2220
     11 C          60.3749   88.4833    8.8641 C.ar    1  UNL1        0.1828
     12 O          64.5708   92.0072   13.2008 O.3     1  UNL1       -0.4755
     13 C          65.9749   91.7022   13.6315 C.3     1  UNL1        0.2057
     14 C          67.1332   92.3133   12.9001 C.3     1  UNL1        0.0520
     15 C          67.1848   92.2632   11.4018 C.3     1  UNL1        0.0303
     16 C          67.3147   94.9487    8.4827 C.ar    1  UNL1        0.0986
     17 C          67.5941   93.7122    9.2845 C.ar    1  UNL1        0.0164
     18 C          66.9053   93.4998   10.6000 C.ar    1  UNL1       -0.0190
     19 C          65.9372   94.5238   11.1137 C.ar    1  UNL1        0.0164
     20 C          65.6578   95.7603   10.3119 C.ar    1  UNL1        0.0986
     21 N          66.3465   95.9728    8.9964 N.ar    1  UNL1       -0.2423
@<TRIPOS>BOND
     1    16    17   ar
     2    17    18   ar
     3    18    15    1
     4    15    14    1
     5    14    13    1
     6    13    12    1
     7    12     1    1
     8     1     2   ar
     9     2     3   ar
    10     3     4   ar
    11     4     7    1
    12     7     8   ar
    13     8     9   ar
    14     9    10   ar
    15    10    11   ar
    16     4     5   ar
    17     5     6   ar
    18    18    19   ar
    19    19    20   ar
    20    20    21   ar
    21    21    16   ar
    22     6     1   ar
    23    11     7   ar
@<TRIPOS>MOLECULE
*****
 21 23 0 0 0
SMALL
GASTEIGER

@<TRIPOS>ATOM
      1 C          63.0938   90.8413   11.0183 C.ar    1  UNL1        0.1386
      2 C          63.0824   90.3177   12.4239 C.ar    1  UNL1        0.0384
      3 C          64.1194   90.7792   13.4046 C.ar    1  UNL1        0.0207
      4 C          65.1677   91.7642   12.9797 C.ar    1  UNL1        0.0657
      5 C          65.1792   92.2877   11.5740 C.ar    1  UNL1        0.0207
      6 C          64.1422   91.8263   10.5934 C.ar    1  UNL1        0.0384
      7 N          66.2048   92.2256   13.9603 N.ar    1  UNL1       -0.2864
      8 C          66.6043   93.6485   14.2170 C.ar    1  UNL1        0.1022
      9 C          67.6708   93.6475   15.2718 C.ar    1  UNL1        0.1196
     10 N          67.9304   92.2239   15.6671 N.ar    1  UNL1       -0.2220
     11 C          67.0244   91.3452   14.8566 C.ar    1  UNL1        0.1828
     12 O          62.0568   90.3798   10.0376 O.3     1  UNL1       -0.4755
     13 C          60.6588   90.0970   10.5019 C.3     1  UNL1        0.2057
     14 C          60.2761   88.7107   10.9281 C.3     1  UNL1        0.0520
     15 C          60.2048   87.6073    9.9144 C.3     1  UNL1        0.0303
     16 C          62.6586   84.7320   11.1237 C.ar    1  UNL1        0.0986
     17 C          61.6034   85.7979   11.1474 C.ar    1  UNL1        0.0164
     18 C          61.2600   86.5414    9.8907 C.ar    1  UNL1       -0.0190
     19 C          61.9718   86.2190    8.6103 C.ar    1  UNL1        0.0164
     20 C          63.0269   85.1531    8.5866 C.ar    1  UNL1        0.0986
     21 N          63.3703   84.4097    9.8433 N.ar    1  UNL1       -0.2423
@<TRIPOS>BOND
     1    16    17   ar
     2    17    18   ar
     3    18    15    1
     4    15    14    1
     5    14    13    1
     6    13    12    1
     7    12     1    1
     8     1     2   ar
     9     2     3   ar
    10     3     4   ar
    11     4     7    1
    12     7     8   ar
    13     8     9   ar
    14     9    10   ar
    15    10    11   ar
    16     4     5   ar
    17     5     6   ar
    18    18    19   ar
    19    19    20   ar
    20    20    21   ar
    21    21    16   ar
    22     6     1   ar
    23    11     7   ar
@<TRIPOS>MOLECULE
*****
 21 23 0 0 0
SMALL
GASTEIGER

@<TRIPOS>ATOM
      1 C          63.2601   88.6511   16.2156 C.ar    1  UNL1        0.1386
      2 C          63.2387   90.0479   16.7618 C.ar    1  UNL1        0.0384
      3 C          63.9516   91.1488   16.0341 C.ar    1  UNL1        0.0207
      4 C          64.6859   90.8529   14.7601 C.ar    1  UNL1        0.0657
      5 C          64.7074   89.4561   14.2139 C.ar    1  UNL1        0.0207
      6 C          63.9945   88.3552   14.9416 C.ar    1  UNL1        0.0384
      7 N          65.3989   91.9539   14.0322 N.ar    1  UNL1       -0.2864
      8 C          65.2712   92.2726   12.5721 C.ar    1  UNL1        0.1022
      9 C          66.1581   93.4450   12.2742 C.ar    1  UNL1        0.1196
     10 N          66.8340   93.8510   13.5504 N.ar    1  UNL1       -0.2220
     11 C          66.3648   92.9294   14.6368 C.ar    1  UNL1        0.1828
     12 O          62.5472   87.5501   16.9435 O.3     1  UNL1       -0.4755
     13 C          63.1968   86.2064   17.0930 C.3     1  UNL1        0.2057
     14 C          62.8256   85.0866   16.1666 C.3     1  UNL1        0.0520
     15 C          63.7961   84.6266   15.1194 C.3     1  UNL1        0.0303
     16 C          63.8103   82.1858   11.9901 C.ar    1  UNL1        0.0986
     17 C          64.1798   83.3086   12.9135 C.ar    1  UNL1        0.0164
     18 C          63.4265   83.5037   14.1959 C.ar    1  UNL1       -0.0190
     19 C          62.3038   82.5761   14.5549 C.ar    1  UNL1        0.0164
     20 C          61.9343   81.4533   13.6314 C.ar    1  UNL1        0.0986
     21 N          62.6876   81.2582   12.3490 N.ar    1  UNL1       -0.2423
@<TRIPOS>BOND
     1    16    17   ar
     2    17    18   ar
     3    18    15    1
     4    15    14    1
     5    14    13    1
     6    13    12    1
     7    12     1    1
     8     1     2   ar
     9     2     3   ar
    10     3     4   ar
    11     4     7    1
    12     7     8   ar
    13     8     9   ar
    14     9    10   ar
    15    10    11   ar
    16     4     5   ar
    17     5     6   ar
    18    18    19   ar
    19    19    20   ar
    20    20    21   ar
    21    21    16   ar
    22     6     1   ar
    23    11     7   ar
@<TRIPOS>MOLECULE
*****
 21 23 0 0 0
SMALL
GASTEIGER

@<TRIPOS>ATOM
      1 C          63.4130   86.6433   16.1861 C.ar    1  UNL1        0.1386
      2 C          62.4015   85.6391   16.6534 C.ar    1  UNL1        0.0384
      3 C          62.2277   84.3480   15.9099 C.ar    1  UNL1        0.0207
      4 C          63.0654   84.0611   14.6991 C.ar    1  UNL1        0.0657
      5 C          64.0769   85.0654   14.2319 C.ar    1  UNL1        0.0207
      6 C          64.2507   86.3565   14.9753 C.ar    1  UNL1        0.0384
      7 N          62.8916   82.7700   13.9556 N.ar    1  UNL1       -0.2864
      8 C          63.6788   82.3299   12.7571 C.ar    1  UNL1        0.1022
      9 C          63.1738   80.9802   12.3408 C.ar    1  UNL1        0.1196
     10 N          62.0744   80.5861   13.2821 N.ar    1  UNL1       -0.2220
     11 C          61.9000   81.6922   14.2801 C.ar    1  UNL1        0.1828
     12 O          63.5868   87.9345   16.9296 O.3     1  UNL1       -0.4755
     13 C          62.8916   89.1747   16.4515 C.3     1  UNL1        0.2057
     14 C          63.6834   90.2845   15.8260 C.3     1  UNL1        0.0520
     15 C          64.5342   90.0121   14.6211 C.3     1  UNL1        0.0303
     16 C          67.5064   92.5811   14.0587 C.ar    1  UNL1        0.0986
     17 C          66.6754   91.4832   14.6537 C.ar    1  UNL1        0.0164
     18 C          65.3652   91.1100   14.0260 C.ar    1  UNL1       -0.0190
     19 C          64.8860   91.8347   12.8032 C.ar    1  UNL1        0.0164
     20 C          65.7170   92.9325   12.2082 C.ar    1  UNL1        0.0986
     21 N          67.0272   93.3057   12.8359 N.ar    1  UNL1       -0.2423
@<TRIPOS>BOND
     1    16    17   ar
     2    17    18   ar
     3    18    15    1
     4    15    14    1
     5    14    13    1
     6    13    12    1
     7    12     1    1
     8     1     2   ar
     9     2     3   ar
    10     3     4   ar
    11     4     7    1
    12     7     8   ar
    13     8     9   ar
    14     9    10   ar
    15    10    11   ar
    16     4     5   ar
    17     5     6   ar
    18    18    19   ar
    19    19    20   ar
    20    20    21   ar
    21    21    16   ar
    22     6     1   ar
    23    11     7   ar
