@<TRIPOS>MOLECULE
*****
 29 31 0 0 0
SMALL
GASTEIGER

@<TRIPOS>ATOM
      1 C          59.5612   88.3298    7.8287 C.ar    1  UNL1        0.1593
      2 C          59.6789   86.8358    7.7642 C.ar    1  UNL1        0.1357
      3 N          60.5497   86.1090    8.7458 N.ar    1  UNL1       -0.2390
      4 C          61.3028   86.8761    9.7919 C.ar    1  UNL1        0.1030
      5 C          62.2309   86.4367   10.8853 C.ar    1  UNL1        0.0895
      6 C          62.6867   87.6591   11.6256 C.ar    1  UNL1        0.0823
      7 N          62.0405   88.8540   10.9897 N.ar    1  UNL1       -0.3189
      8 C          61.1851   88.3701    9.8563 C.ar    1  UNL1        0.0814
      9 C          60.3143   89.0969    8.8748 C.ar    1  UNL1        0.0572
     10 C          62.6325   85.0230   11.1857 C.2     1  UNL1        0.2489
     11 O          63.2262   84.1666   10.1068 O.2     1  UNL1       -0.2700
     12 N          62.4404   84.4657   12.5650 N.am    1  UNL1       -0.2984
     13 H          62.0506   85.0278   13.2731 H       1  UNL1        0.1498
     14 C          62.8420   83.0521   12.8654 C.3     1  UNL1        0.1215
     15 C          64.2943   82.6883   12.9568 C.3     1  UNL1        0.1583
     16 O          65.1273   82.6084   11.7119 O.3     1  UNL1       -0.3802
     17 H          64.8115   81.8775   11.1579 H       1  UNL1        0.2105
     18 C          59.2946   90.0533    5.9030 C.3     1  UNL1        0.2525
     19 O          58.6904   89.0566    6.8472 O.3     1  UNL1       -0.4698
     20 C          62.2182   90.2821   11.4127 C.3     1  UNL1        0.1518
     21 C          63.0952   90.6138   12.5836 C.ar    1  UNL1        0.0841
     22 N          62.7577   90.0865   13.9467 N.ar    1  UNL1       -0.2265
     23 C          63.6346   90.4182   15.1175 C.ar    1  UNL1        0.2012
     24 N          64.8492   91.2773   14.9253 N.ar    1  UNL1       -0.1896
     25 C          65.1867   91.8045   13.5621 C.ar    1  UNL1        0.2234
     26 C          64.3098   91.4728   12.3913 C.ar    1  UNL1        0.0468
     27 C          64.6474   92.0001   11.0282 C.3     1  UNL1        0.0372
     28 O          66.4013   92.6635   13.3699 O.3     1  UNL1       -0.4563
     29 C          66.9016   93.5179   14.4967 C.3     1  UNL1        0.2542
@<TRIPOS>BOND
     1    18    19    1
     2    19     1    1
     3     1     2   ar
     4     2     3   ar
     5     3     4   ar
     6     4     5   ar
     7     5    10    1
     8    10    11    2
     9    10    12   am
    10    12    14    1
    11    14    15    1
    12    15    16    1
    13     5     6   ar
    14     6     7   ar
    15     7    20    1
    16    20    21    1
    17    21    22   ar
    18    22    23   ar
    19    23    24   ar
    20    24    25   ar
    21    25    28    1
    22    28    29    1
    23    25    26   ar
    24    26    27    1
    25     7     8   ar
    26     8     9   ar
    27     9     1   ar
    28     8     4   ar
    29    26    21   ar
    30    12    13    1
    31    16    17    1
@<TRIPOS>MOLECULE
*****
 29 31 0 0 0
SMALL
GASTEIGER

@<TRIPOS>ATOM
      1 C          64.0081   86.5258   14.0594 C.ar    1  UNL1        0.1593
      2 C          63.3267   85.6726   13.0310 C.ar    1  UNL1        0.1357
      3 N          62.6416   86.3126   11.8601 N.ar    1  UNL1       -0.2390
      4 C          62.6379   87.8057   11.7176 C.ar    1  UNL1        0.1030
      5 C          62.0491   88.7134   10.6786 C.ar    1  UNL1        0.0895
      6 C          62.3667   90.1276   11.0649 C.ar    1  UNL1        0.0823
      7 N          63.1517   90.0940   12.3426 N.ar    1  UNL1       -0.3189
      8 C          63.3193   88.6589   12.7460 C.ar    1  UNL1        0.0814
      9 C          64.0045   88.0190   13.9169 C.ar    1  UNL1        0.0572
     10 C          61.2781   88.2825    9.4662 C.2     1  UNL1        0.2489
     11 O          60.5462   89.2999    8.6421 O.2     1  UNL1       -0.2700
     12 N          61.2391   86.8342    9.0779 N.am    1  UNL1       -0.2984
     13 H          61.7195   86.1664    9.6188 H       1  UNL1        0.1498
     14 C          60.4681   86.4033    7.8655 C.3     1  UNL1        0.1215
     15 C          58.9842   86.6142    7.8063 C.3     1  UNL1        0.1583
     16 O          58.4315   87.9298    7.3438 O.3     1  UNL1       -0.3802
     17 H          58.6686   88.6219    7.9808 H       1  UNL1        0.2105
     18 C          63.9104   85.5476   16.4643 C.3     1  UNL1        0.2525
     19 O          64.6932   85.8858   15.2303 O.3     1  UNL1       -0.4698
     20 C          63.6770   91.2860   13.0863 C.3     1  UNL1        0.1518
     21 C          65.1416   91.6078   13.0488 C.ar    1  UNL1        0.0841
     22 N          66.0083   91.2976   14.2331 N.ar    1  UNL1       -0.2265
     23 C          67.4728   91.6194   14.1955 C.ar    1  UNL1        0.2012
     24 N          68.0708   92.2515   12.9737 N.ar    1  UNL1       -0.1896
     25 C          67.2040   92.5618   11.7893 C.ar    1  UNL1        0.2234
     26 C          65.7394   92.2399   11.8269 C.ar    1  UNL1        0.0468
     27 C          64.8728   92.5502   10.6425 C.3     1  UNL1        0.0372
     28 O          67.8020   93.1938   10.5675 O.3     1  UNL1       -0.4563
     29 C          68.4794   92.3403    9.5367 C.3     1  UNL1        0.2542
@<TRIPOS>BOND
     1    18    19    1
     2    19     1    1
     3     1     2   ar
     4     2     3   ar
     5     3     4   ar
     6     4     5   ar
     7     5    10    1
     8    10    11    2
     9    10    12   am
    10    12    14    1
    11    14    15    1
    12    15    16    1
    13     5     6   ar
    14     6     7   ar
    15     7    20    1
    16    20    21    1
    17    21    22   ar
    18    22    23   ar
    19    23    24   ar
    20    24    25   ar
    21    25    28    1
    22    28    29    1
    23    25    26   ar
    24    26    27    1
    25     7     8   ar
    26     8     9   ar
    27     9     1   ar
    28     8     4   ar
    29    26    21   ar
    30    12    13    1
    31    16    17    1
@<TRIPOS>MOLECULE
*****
 29 31 0 0 0
SMALL
GASTEIGER

@<TRIPOS>ATOM
      1 C          60.7363   88.8099    9.4814 C.ar    1  UNL1        0.1593
      2 C          60.7506   87.3116    9.5498 C.ar    1  UNL1        0.1357
      3 N          61.5544   86.6168   10.6086 N.ar    1  UNL1       -0.2390
      4 C          62.3440   87.4203   11.5990 C.ar    1  UNL1        0.1030
      5 C          63.2233   87.0170   12.7454 C.ar    1  UNL1        0.0895
      6 C          63.7525   88.2661   13.3855 C.ar    1  UNL1        0.0823
      7 N          63.2002   89.4414   12.6347 N.ar    1  UNL1       -0.3189
      8 C          62.3297   88.9186   11.5306 C.ar    1  UNL1        0.0814
      9 C          61.5258   89.6135   10.4718 C.ar    1  UNL1        0.0572
     10 C          63.5211   85.6114   13.1760 C.2     1  UNL1        0.2489
     11 O          64.5146   85.3568   14.2706 O.2     1  UNL1       -0.2700
     12 N          62.8255   84.4602   12.5120 N.am    1  UNL1       -0.2984
     13 H          62.1735   84.6272   11.7935 H       1  UNL1        0.1498
     14 C          63.1234   83.0546   12.9426 C.3     1  UNL1        0.1215
     15 C          63.9279   82.1525   12.0543 C.3     1  UNL1        0.1583
     16 O          65.1610   82.6725   11.3768 O.3     1  UNL1       -0.3802
     17 H          64.9132   83.3548   10.7335 H       1  UNL1        0.2105
     18 C          59.4109   88.7309    7.2483 C.3     1  UNL1        0.2525
     19 O          59.9325   89.5048    8.4226 O.3     1  UNL1       -0.4698
     20 C          63.4709   90.8859   12.9353 C.3     1  UNL1        0.1518
     21 C          64.8813   91.3959   12.9567 C.ar    1  UNL1        0.0841
     22 N          65.7204   91.2295   14.1888 N.ar    1  UNL1       -0.2265
     23 C          67.1309   91.7396   14.2102 C.ar    1  UNL1        0.2012
     24 N          67.7023   92.4161   12.9995 N.ar    1  UNL1       -0.1896
     25 C          66.8631   92.5825   11.7673 C.ar    1  UNL1        0.2234
     26 C          65.4526   92.0724   11.7459 C.ar    1  UNL1        0.0468
     27 C          64.6136   92.2389   10.5137 C.3     1  UNL1        0.0372
     28 O          67.4344   93.2590   10.5566 O.3     1  UNL1       -0.4563
     29 C          68.3645   92.5108    9.6482 C.3     1  UNL1        0.2542
@<TRIPOS>BOND
     1    18    19    1
     2    19     1    1
     3     1     2   ar
     4     2     3   ar
     5     3     4   ar
     6     4     5   ar
     7     5    10    1
     8    10    11    2
     9    10    12   am
    10    12    14    1
    11    14    15    1
    12    15    16    1
    13     5     6   ar
    14     6     7   ar
    15     7    20    1
    16    20    21    1
    17    21    22   ar
    18    22    23   ar
    19    23    24   ar
    20    24    25   ar
    21    25    28    1
    22    28    29    1
    23    25    26   ar
    24    26    27    1
    25     7     8   ar
    26     8     9   ar
    27     9     1   ar
    28     8     4   ar
    29    26    21   ar
    30    12    13    1
    31    16    17    1
@<TRIPOS>MOLECULE
*****
 29 31 0 0 0
SMALL
GASTEIGER

@<TRIPOS>ATOM
      1 C          62.7194   85.4495   11.5274 C.ar    1  UNL1        0.1593
      2 C          61.9833   85.0253   10.2913 C.ar    1  UNL1        0.1357
      3 N          61.2227   86.0375    9.4868 N.ar    1  UNL1       -0.2390
      4 C          61.1984   87.4738    9.9185 C.ar    1  UNL1        0.1030
      5 C          60.5399   88.6872    9.3319 C.ar    1  UNL1        0.0895
      6 C          60.8691   89.8612   10.2055 C.ar    1  UNL1        0.0823
      7 N          61.7311   89.3735   11.3321 N.ar    1  UNL1       -0.3189
      8 C          61.9345   87.8979   11.1547 C.ar    1  UNL1        0.0814
      9 C          62.6951   86.8858   11.9591 C.ar    1  UNL1        0.0572
     10 C          59.6997   88.7206    8.0898 C.2     1  UNL1        0.2489
     11 O          58.7522   87.5959    7.7947 O.2     1  UNL1       -0.2700
     12 N          59.8071   89.8787    7.1426 N.am    1  UNL1       -0.2984
     13 H          60.4290   90.6170    7.3362 H       1  UNL1        0.1498
     14 C          58.9669   89.9122    5.9004 C.3     1  UNL1        0.1215
     15 C          58.5428   91.2274    5.3170 C.3     1  UNL1        0.1583
     16 O          57.0849   91.5387    5.1505 O.3     1  UNL1       -0.3802
     17 H          56.6989   90.9379    4.4940 H       1  UNL1        0.2105
     18 C          63.8709   84.7444   13.7470 C.3     1  UNL1        0.2525
     19 O          63.4800   84.4373   12.3319 O.3     1  UNL1       -0.4698
     20 C          62.2912   90.2137   12.4412 C.3     1  UNL1        0.1518
     21 C          63.5578   90.9887   12.2288 C.ar    1  UNL1        0.0841
     22 N          63.8329   91.6263   10.8992 N.ar    1  UNL1       -0.2265
     23 C          65.0995   92.4013   10.6868 C.ar    1  UNL1        0.2012
     24 N          66.0910   92.5387   11.8039 N.ar    1  UNL1       -0.1896
     25 C          65.8159   91.9011   13.1335 C.ar    1  UNL1        0.2234
     26 C          64.5493   91.1261   13.3460 C.ar    1  UNL1        0.0468
     27 C          64.2742   90.4885   14.6756 C.3     1  UNL1        0.0372
     28 O          66.8074   92.0385   14.2507 O.3     1  UNL1       -0.4563
     29 C          67.0519   93.3799   14.8757 C.3     1  UNL1        0.2542
@<TRIPOS>BOND
     1    18    19    1
     2    19     1    1
     3     1     2   ar
     4     2     3   ar
     5     3     4   ar
     6     4     5   ar
     7     5    10    1
     8    10    11    2
     9    10    12   am
    10    12    14    1
    11    14    15    1
    12    15    16    1
    13     5     6   ar
    14     6     7   ar
    15     7    20    1
    16    20    21    1
    17    21    22   ar
    18    22    23   ar
    19    23    24   ar
    20    24    25   ar
    21    25    28    1
    22    28    29    1
    23    25    26   ar
    24    26    27    1
    25     7     8   ar
    26     8     9   ar
    27     9     1   ar
    28     8     4   ar
    29    26    21   ar
    30    12    13    1
    31    16    17    1
@<TRIPOS>MOLECULE
*****
 29 31 0 0 0
SMALL
GASTEIGER

@<TRIPOS>ATOM
      1 C          60.3217   88.7903    9.2592 C.ar    1  UNL1        0.1593
      2 C          60.5173   90.1867    9.7707 C.ar    1  UNL1        0.1357
      3 N          61.4441   90.4405   10.9225 N.ar    1  UNL1       -0.2390
      4 C          62.1752   89.2980   11.5628 C.ar    1  UNL1        0.1030
      5 C          63.1461   89.2414   12.7048 C.ar    1  UNL1        0.0895
      6 C          63.5504   87.8101   12.8991 C.ar    1  UNL1        0.0823
      7 N          62.8295   86.9820   11.8771 N.ar    1  UNL1       -0.3189
      8 C          61.9796   87.9016   11.0512 C.ar    1  UNL1        0.0814
      9 C          61.0528   87.6477    9.8994 C.ar    1  UNL1        0.0572
     10 C          63.6279   90.4109   13.5111 C.2     1  UNL1        0.2489
     11 O          63.9202   91.7180   12.8358 O.2     1  UNL1       -0.2700
     12 N          63.8174   90.2734   14.9927 N.am    1  UNL1       -0.2984
     13 H          63.6256   89.4155   15.4359 H       1  UNL1        0.1498
     14 C          64.2993   91.4429   15.7989 C.3     1  UNL1        0.1215
     15 C          65.6653   92.0116   15.5530 C.3     1  UNL1        0.1583
     16 O          65.8189   93.2840   14.7737 O.3     1  UNL1       -0.3802
     17 H          65.5365   93.1380   13.8573 H       1  UNL1        0.2105
     18 C          59.0422   87.1298    7.7244 C.3     1  UNL1        0.2525
     19 O          59.3949   88.5365    8.1074 O.3     1  UNL1       -0.4698
     20 C          62.9393   85.4953   11.7102 C.3     1  UNL1        0.1518
     21 C          62.9521   84.6041   12.9167 C.ar    1  UNL1        0.0841
     22 N          62.7397   85.1873   14.2822 N.ar    1  UNL1       -0.2265
     23 C          62.7525   84.2961   15.4887 C.ar    1  UNL1        0.2012
     24 N          62.9777   82.8217   15.3297 N.ar    1  UNL1       -0.1896
     25 C          63.1901   82.2385   13.9640 C.ar    1  UNL1        0.2234
     26 C          63.1773   83.1297   12.7576 C.ar    1  UNL1        0.0468
     27 C          63.3897   82.5464   11.3920 C.3     1  UNL1        0.0372
     28 O          63.4153   80.7640   13.8050 O.3     1  UNL1       -0.4563
     29 C          62.2717   79.8661   13.4363 C.3     1  UNL1        0.2542
@<TRIPOS>BOND
     1    18    19    1
     2    19     1    1
     3     1     2   ar
     4     2     3   ar
     5     3     4   ar
     6     4     5   ar
     7     5    10    1
     8    10    11    2
     9    10    12   am
    10    12    14    1
    11    14    15    1
    12    15    16    1
    13     5     6   ar
    14     6     7   ar
    15     7    20    1
    16    20    21    1
    17    21    22   ar
    18    22    23   ar
    19    23    24   ar
    20    24    25   ar
    21    25    28    1
    22    28    29    1
    23    25    26   ar
    24    26    27    1
    25     7     8   ar
    26     8     9   ar
    27     9     1   ar
    28     8     4   ar
    29    26    21   ar
    30    12    13    1
    31    16    17    1
@<TRIPOS>MOLECULE
*****
 29 31 0 0 0
SMALL
GASTEIGER

@<TRIPOS>ATOM
      1 C          60.9858   88.0998    9.4626 C.ar    1  UNL1        0.1593
      2 C          61.1428   86.6377    9.7584 C.ar    1  UNL1        0.1357
      3 N          61.9625   86.1941   10.9337 N.ar    1  UNL1       -0.2390
      4 C          62.6250   87.2125   11.8133 C.ar    1  UNL1        0.1030
      5 C          63.4874   87.0764   13.0330 C.ar    1  UNL1        0.0895
      6 C          63.8634   88.4544   13.4911 C.ar    1  UNL1        0.0823
      7 N          63.2333   89.4422   12.5545 N.ar    1  UNL1       -0.3189
      8 C          62.4680   88.6746   11.5175 C.ar    1  UNL1        0.0814
      9 C          61.6483   89.1183   10.3422 C.ar    1  UNL1        0.0572
     10 C          63.9012   85.7883   13.6809 C.2     1  UNL1        0.2489
     11 O          64.8273   85.8058   14.8607 O.2     1  UNL1       -0.2700
     12 N          63.3889   84.4827   13.1489 N.am    1  UNL1       -0.2984
     13 H          62.7811   84.4712   12.3745 H       1  UNL1        0.1498
     14 C          63.8027   83.1947   13.7968 C.3     1  UNL1        0.1215
     15 C          62.9390   81.9758   13.6616 C.3     1  UNL1        0.1583
     16 O          63.3843   80.6716   14.2540 O.3     1  UNL1       -0.3802
     17 H          64.1778   80.3604   13.7911 H       1  UNL1        0.2105
     18 C          59.2063   87.5900    7.6396 C.3     1  UNL1        0.2525
     19 O          60.1662   88.5435    8.2873 O.3     1  UNL1       -0.4698
     20 C          63.3484   90.9353   12.6398 C.3     1  UNL1        0.1518
     21 C          64.6540   91.6058   12.3305 C.ar    1  UNL1        0.0841
     22 N          64.9178   92.1342   10.9517 N.ar    1  UNL1       -0.2265
     23 C          66.2234   92.8047   10.6424 C.ar    1  UNL1        0.2012
     24 N          67.2655   92.9468   11.7120 N.ar    1  UNL1       -0.1896
     25 C          67.0017   92.4183   13.0909 C.ar    1  UNL1        0.2234
     26 C          65.6960   91.7478   13.4002 C.ar    1  UNL1        0.0468
     27 C          65.4324   91.2194   14.7790 C.3     1  UNL1        0.0372
     28 O          68.0437   92.5604   14.1605 O.3     1  UNL1       -0.4563
     29 C          67.9112   93.6349   15.1987 C.3     1  UNL1        0.2542
@<TRIPOS>BOND
     1    18    19    1
     2    19     1    1
     3     1     2   ar
     4     2     3   ar
     5     3     4   ar
     6     4     5   ar
     7     5    10    1
     8    10    11    2
     9    10    12   am
    10    12    14    1
    11    14    15    1
    12    15    16    1
    13     5     6   ar
    14     6     7   ar
    15     7    20    1
    16    20    21    1
    17    21    22   ar
    18    22    23   ar
    19    23    24   ar
    20    24    25   ar
    21    25    28    1
    22    28    29    1
    23    25    26   ar
    24    26    27    1
    25     7     8   ar
    26     8     9   ar
    27     9     1   ar
    28     8     4   ar
    29    26    21   ar
    30    12    13    1
    31    16    17    1
@<TRIPOS>MOLECULE
*****
 29 31 0 0 0
SMALL
GASTEIGER

@<TRIPOS>ATOM
      1 C          66.0655   93.2345   12.0979 C.ar    1  UNL1        0.1593
      2 C          66.2447   93.1990   13.5867 C.ar    1  UNL1        0.1357
      3 N          65.4476   92.2355   14.4152 N.ar    1  UNL1       -0.2390
      4 C          64.4715   91.3076   13.7549 C.ar    1  UNL1        0.1030
      5 C          63.5532   90.2580   14.3073 C.ar    1  UNL1        0.0895
      6 C          62.8065   89.6449   13.1599 C.ar    1  UNL1        0.0823
      7 N          63.2633   90.3155   11.8984 N.ar    1  UNL1       -0.3189
      8 C          64.2923   91.3431   12.2661 C.ar    1  UNL1        0.0814
      9 C          65.0894   92.3066   11.4376 C.ar    1  UNL1        0.0572
     10 C          63.4072   89.8868   15.7533 C.2     1  UNL1        0.2489
     11 O          63.4585   90.9505   16.8096 O.2     1  UNL1       -0.2700
     12 N          63.2099   88.4518   16.1430 N.am    1  UNL1       -0.2984
     13 H          63.1763   87.7536   15.4497 H       1  UNL1        0.1498
     14 C          63.0639   88.0805   17.5890 C.3     1  UNL1        0.1215
     15 C          62.6002   86.7050   17.9671 C.3     1  UNL1        0.1583
     16 O          61.4692   86.0630   17.2197 O.3     1  UNL1       -0.3802
     17 H          60.6518   86.5599   17.3809 H       1  UNL1        0.2105
     18 C          67.0318   93.9604    9.7980 C.3     1  UNL1        0.2525
     19 O          66.8626   94.1980   11.2694 O.3     1  UNL1       -0.4698
     20 C          62.7766   90.0119   10.5124 C.3     1  UNL1        0.1518
     21 C          62.1348   88.6889   10.2159 C.ar    1  UNL1        0.0841
     22 N          62.8215   87.4162   10.6141 N.ar    1  UNL1       -0.2265
     23 C          62.1797   86.0933   10.3176 C.ar    1  UNL1        0.2012
     24 N          60.8512   86.0430    9.6228 N.ar    1  UNL1       -0.1896
     25 C          60.1646   87.3158    9.2246 C.ar    1  UNL1        0.2234
     26 C          60.8063   88.6388    9.5211 C.ar    1  UNL1        0.0468
     27 C          60.1196   89.9115    9.1228 C.3     1  UNL1        0.0372
     28 O          58.8361   87.2656    8.5298 O.3     1  UNL1       -0.4563
     29 C          58.7572   87.4740    7.0465 C.3     1  UNL1        0.2542
@<TRIPOS>BOND
     1    18    19    1
     2    19     1    1
     3     1     2   ar
     4     2     3   ar
     5     3     4   ar
     6     4     5   ar
     7     5    10    1
     8    10    11    2
     9    10    12   am
    10    12    14    1
    11    14    15    1
    12    15    16    1
    13     5     6   ar
    14     6     7   ar
    15     7    20    1
    16    20    21    1
    17    21    22   ar
    18    22    23   ar
    19    23    24   ar
    20    24    25   ar
    21    25    28    1
    22    28    29    1
    23    25    26   ar
    24    26    27    1
    25     7     8   ar
    26     8     9   ar
    27     9     1   ar
    28     8     4   ar
    29    26    21   ar
    30    12    13    1
    31    16    17    1
@<TRIPOS>MOLECULE
*****
 29 31 0 0 0
SMALL
GASTEIGER

@<TRIPOS>ATOM
      1 C          63.9244   86.5933   14.0190 C.ar    1  UNL1        0.1593
      2 C          63.3412   85.5897   13.0689 C.ar    1  UNL1        0.1357
      3 N          62.6648   86.0515   11.8122 N.ar    1  UNL1       -0.2390
      4 C          62.5716   87.5169   11.5056 C.ar    1  UNL1        0.1030
      5 C          61.9688   88.2650   10.3537 C.ar    1  UNL1        0.0895
      6 C          62.1795   89.7309   10.5918 C.ar    1  UNL1        0.0823
      7 N          62.9124   89.8888   11.8910 N.ar    1  UNL1       -0.3189
      8 C          63.1548   88.5204   12.4557 C.ar    1  UNL1        0.0814
      9 C          63.8312   88.0586   13.7124 C.ar    1  UNL1        0.0572
     10 C          61.2769   87.6543    9.1712 C.2     1  UNL1        0.2489
     11 O          60.2157   88.4247    8.4429 O.2     1  UNL1       -0.2700
     12 N          61.6461   86.2732    8.7169 N.am    1  UNL1       -0.2984
     13 H          62.3425   85.7676    9.1949 H       1  UNL1        0.1498
     14 C          60.9541   85.6626    7.5345 C.3     1  UNL1        0.1215
     15 C          61.7118   84.7612    6.6052 C.3     1  UNL1        0.1583
     16 O          60.9740   83.9392    5.5903 O.3     1  UNL1       -0.3802
     17 H          60.4259   83.2803    6.0446 H       1  UNL1        0.2105
     18 C          63.7827   85.6094   16.4193 C.3     1  UNL1        0.2525
     19 O          64.6008   86.1315   15.2756 O.3     1  UNL1       -0.4698
     20 C          63.3298   91.1871   12.5157 C.3     1  UNL1        0.1518
     21 C          64.7377   91.6786   12.3543 C.ar    1  UNL1        0.0841
     22 N          65.2075   92.1847   11.0227 N.ar    1  UNL1       -0.2265
     23 C          66.6155   92.6762   10.8613 C.ar    1  UNL1        0.2012
     24 N          67.5537   92.6617   12.0316 N.ar    1  UNL1       -0.1896
     25 C          67.0839   92.1557   13.3633 C.ar    1  UNL1        0.2234
     26 C          65.6759   91.6641   13.5247 C.ar    1  UNL1        0.0468
     27 C          65.2062   91.1581   14.8563 C.3     1  UNL1        0.0372
     28 O          68.0221   92.1412   14.5335 O.3     1  UNL1       -0.4563
     29 C          68.1565   93.3567   15.4022 C.3     1  UNL1        0.2542
@<TRIPOS>BOND
     1    18    19    1
     2    19     1    1
     3     1     2   ar
     4     2     3   ar
     5     3     4   ar
     6     4     5   ar
     7     5    10    1
     8    10    11    2
     9    10    12   am
    10    12    14    1
    11    14    15    1
    12    15    16    1
    13     5     6   ar
    14     6     7   ar
    15     7    20    1
    16    20    21    1
    17    21    22   ar
    18    22    23   ar
    19    23    24   ar
    20    24    25   ar
    21    25    28    1
    22    28    29    1
    23    25    26   ar
    24    26    27    1
    25     7     8   ar
    26     8     9   ar
    27     9     1   ar
    28     8     4   ar
    29    26    21   ar
    30    12    13    1
    31    16    17    1
@<TRIPOS>MOLECULE
*****
 29 31 0 0 0
SMALL
GASTEIGER

@<TRIPOS>ATOM
      1 C          62.0558   86.9748   10.6572 C.ar    1  UNL1        0.1593
      2 C          62.0633   88.4747   10.6579 C.ar    1  UNL1        0.1357
      3 N          62.7583   89.2208   11.7580 N.ar    1  UNL1       -0.2390
      4 C          63.4458   88.4669   12.8576 C.ar    1  UNL1        0.1030
      5 C          64.2072   88.9261   14.0656 C.ar    1  UNL1        0.0895
      6 C          64.6702   87.7099   14.8116 C.ar    1  UNL1        0.0823
      7 N          64.1949   86.4990   14.0647 N.ar    1  UNL1       -0.3189
      8 C          63.4382   86.9669   12.8570 C.ar    1  UNL1        0.0814
      9 C          62.7432   86.2209   11.7568 C.ar    1  UNL1        0.0572
     10 C          64.4610   90.3512   14.4586 C.2     1  UNL1        0.2489
     11 O          63.3337   91.2021   14.9637 O.2     1  UNL1       -0.2700
     12 N          65.8422   90.9255   14.3466 N.am    1  UNL1       -0.2984
     13 H          66.5821   90.3671   14.0151 H       1  UNL1        0.1498
     14 C          66.0960   92.3507   14.7396 C.3     1  UNL1        0.1215
     15 C          66.1099   92.7380   16.1887 C.3     1  UNL1        0.1583
     16 O          64.8245   92.8082   16.9586 O.3     1  UNL1       -0.3802
     17 H          64.2742   93.5242   16.6045 H       1  UNL1        0.2105
     18 C          60.0904   86.7691    8.9705 C.3     1  UNL1        0.2525
     19 O          61.3608   86.2287    9.5571 O.3     1  UNL1       -0.4698
     20 C          64.4344   85.0711   14.4565 C.3     1  UNL1        0.1518
     21 C          63.9924   83.9605   13.5503 C.ar    1  UNL1        0.0841
     22 N          64.7129   83.7154   12.2578 N.ar    1  UNL1       -0.2265
     23 C          64.2710   82.6048   11.3515 C.ar    1  UNL1        0.2012
     24 N          63.1084   81.7393   11.7378 N.ar    1  UNL1       -0.1896
     25 C          62.3878   81.9844   13.0305 C.ar    1  UNL1        0.2234
     26 C          62.8298   83.0950   13.9367 C.ar    1  UNL1        0.0468
     27 C          62.1092   83.3400   15.2292 C.3     1  UNL1        0.0372
     28 O          61.2252   81.1188   13.4168 O.3     1  UNL1       -0.4563
     29 C          61.4514   79.6864   13.8002 C.3     1  UNL1        0.2542
@<TRIPOS>BOND
     1    18    19    1
     2    19     1    1
     3     1     2   ar
     4     2     3   ar
     5     3     4   ar
     6     4     5   ar
     7     5    10    1
     8    10    11    2
     9    10    12   am
    10    12    14    1
    11    14    15    1
    12    15    16    1
    13     5     6   ar
    14     6     7   ar
    15     7    20    1
    16    20    21    1
    17    21    22   ar
    18    22    23   ar
    19    23    24   ar
    20    24    25   ar
    21    25    28    1
    22    28    29    1
    23    25    26   ar
    24    26    27    1
    25     7     8   ar
    26     8     9   ar
    27     9     1   ar
    28     8     4   ar
    29    26    21   ar
    30    12    13    1
    31    16    17    1
