@<TRIPOS>MOLECULE
*****
 27 30 0 0 0
SMALL
GASTEIGER

@<TRIPOS>ATOM
      1 O          63.3585   91.5581   12.7404 O.2     1  UNL1       -0.2719
      2 C          63.8443   90.5866   13.7749 C.2     1  UNL1        0.2570
      3 N          63.7188   89.1111   13.5358 N.am    1  UNL1       -0.2738
      4 C          63.1076   88.6071   12.2621 C.3     1  UNL1        0.1149
      5 C          62.9821   87.1315   12.0230 C.3     1  UNL1        0.1121
      6 N          63.4679   86.1602   13.0575 N.pl3   1  UNL1       -0.3071
      7 C          64.0792   86.6642   14.3312 C.3     1  UNL1        0.1121
      8 C          64.2047   88.1397   14.5703 C.3     1  UNL1        0.1149
      9 C          63.3425   84.6846   12.8185 C.2     1  UNL1        0.0295
     10 C          64.0242   84.0551   11.6400 C.2     1  UNL1        0.0120
     11 C          63.8987   82.5796   11.4009 C.2     1  UNL1        0.0216
     12 C          63.0916   81.7336   12.3405 C.2     1  UNL1        0.1008
     13 N          62.7902   80.2643   12.3609 N.2     1  UNL1       -0.1482
     14 N          61.9222   79.9858   13.5521 N.2     1  UNL1       -0.1467
     15 C          61.6872   81.2829   14.2679 C.2     1  UNL1        0.1198
     16 C          62.4099   82.3631   13.5190 C.2     1  UNL1        0.0238
     17 C          62.5354   83.8386   13.7580 C.3     1  UNL1        0.0705
     18 C          64.4556   91.0907   15.0486 C.3     1  UNL1        0.2096
     19 O          63.6757   91.0340   16.3286 O.3     1  UNL1       -0.3719
     20 H          62.8027   90.6469   16.1584 H       1  UNL1        0.2114
     21 C          65.8468   91.6514   15.0422 C.ar    1  UNL1        0.0139
     22 C          66.3229   92.4894   16.1916 C.ar    1  UNL1       -0.0014
     23 C          67.7142   93.0502   16.1852 C.ar    1  UNL1        0.0006
     24 C          68.6293   92.7730   15.0294 C.ar    1  UNL1        0.0114
     25 C          68.1532   91.9350   13.8800 C.ar    1  UNL1        0.0574
     26 CL         69.0682   91.6578   12.7244 Cl      1  UNL1       -0.0823
     27 C          66.7619   91.3742   13.8865 C.ar    1  UNL1        0.0099
@<TRIPOS>BOND
     1     1     2    2
     2     2    18    1
     3    18    19    1
     4    18    21    1
     5    21    22   ar
     6    22    23   ar
     7    23    24   ar
     8    24    25   ar
     9    25    26    1
    10    25    27   ar
    11     2     3   am
    12     3     4    1
    13     4     5    1
    14     5     6    1
    15     6     9    1
    16     9    10    2
    17    10    11    1
    18    11    12    2
    19    12    13    1
    20    13    14    2
    21    14    15    1
    22    15    16    2
    23    16    17    1
    24     6     7    1
    25     7     8    1
    26    27    21   ar
    27     8     3    1
    28    17     9    1
    29    16    12    1
    30    19    20    1
@<TRIPOS>MOLECULE
*****
 27 30 0 0 0
SMALL
GASTEIGER

@<TRIPOS>ATOM
      1 O          65.8167   91.5261   14.9560 O.2     1  UNL1       -0.2719
      2 C          65.5107   92.0123   13.5704 C.2     1  UNL1        0.2570
      3 N          64.5675   91.2406   12.6959 N.am    1  UNL1       -0.2738
      4 C          63.9303   89.9825   13.2070 C.3     1  UNL1        0.1149
      5 C          62.9871   89.2107   12.3324 C.3     1  UNL1        0.1121
      6 N          62.6812   89.6970   10.9469 N.pl3   1  UNL1       -0.3071
      7 C          63.3184   90.9551   10.4358 C.3     1  UNL1        0.1121
      8 C          64.2616   91.7268   11.3103 C.3     1  UNL1        0.1149
      9 C          61.7380   88.9252   10.0723 C.2     1  UNL1        0.0295
     10 C          60.3658   89.4621    9.7920 C.2     1  UNL1        0.0120
     11 C          59.4226   88.6903    8.9174 C.2     1  UNL1        0.0216
     12 C          59.8518   87.3817    8.3231 C.2     1  UNL1        0.1008
     13 N          59.1455   86.4052    7.4300 N.2     1  UNL1       -0.1482
     14 N          60.0813   85.2649    7.1583 N.2     1  UNL1       -0.1467
     15 C          61.3660   85.5365    7.8835 C.2     1  UNL1        0.1198
     16 C          61.2241   86.8448    8.6034 C.2     1  UNL1        0.0238
     17 C          62.1672   87.6166    9.4780 C.3     1  UNL1        0.0705
     18 C          66.1479   93.2704   13.0593 C.3     1  UNL1        0.2096
     19 O          66.1298   94.5142   13.8974 O.3     1  UNL1       -0.3719
     20 H          65.6709   94.3345   14.7329 H       1  UNL1        0.2114
     21 C          66.8032   93.2845   11.7100 C.ar    1  UNL1        0.0139
     22 C          67.6924   92.1496   11.2963 C.ar    1  UNL1       -0.0014
     23 C          68.3477   92.1636    9.9471 C.ar    1  UNL1        0.0006
     24 C          68.1138   93.3126    9.0116 C.ar    1  UNL1        0.0114
     25 C          67.2246   94.4475    9.4254 C.ar    1  UNL1        0.0574
     26 CL         66.9907   95.5965    8.4899 Cl      1  UNL1       -0.0823
     27 C          66.5693   94.4334   10.7746 C.ar    1  UNL1        0.0099
@<TRIPOS>BOND
     1     1     2    2
     2     2    18    1
     3    18    19    1
     4    18    21    1
     5    21    22   ar
     6    22    23   ar
     7    23    24   ar
     8    24    25   ar
     9    25    26    1
    10    25    27   ar
    11     2     3   am
    12     3     4    1
    13     4     5    1
    14     5     6    1
    15     6     9    1
    16     9    10    2
    17    10    11    1
    18    11    12    2
    19    12    13    1
    20    13    14    2
    21    14    15    1
    22    15    16    2
    23    16    17    1
    24     6     7    1
    25     7     8    1
    26    27    21   ar
    27     8     3    1
    28    17     9    1
    29    16    12    1
    30    19    20    1
@<TRIPOS>MOLECULE
*****
 27 30 0 0 0
SMALL
GASTEIGER

@<TRIPOS>ATOM
      1 O          60.7679   89.4784    8.5666 O.2     1  UNL1       -0.2719
      2 C          61.3145   88.9107    9.8429 C.2     1  UNL1        0.2570
      3 N          62.3323   89.6808   10.6310 N.am    1  UNL1       -0.2738
      4 C          62.8035   91.0185   10.1427 C.3     1  UNL1        0.1149
      5 C          63.8213   91.7886   10.9309 C.3     1  UNL1        0.1121
      6 N          64.3679   91.2210   12.2071 N.pl3   1  UNL1       -0.3071
      7 C          63.8967   89.8832   12.6954 C.3     1  UNL1        0.1121
      8 C          62.8789   89.1131   11.9073 C.3     1  UNL1        0.1149
      9 C          65.3857   91.9910   12.9953 C.2     1  UNL1        0.0295
     10 C          65.6628   93.4269   12.6620 C.2     1  UNL1        0.0120
     11 C          66.6806   94.1970   13.4501 C.2     1  UNL1        0.0216
     12 C          67.4213   93.5310   14.5716 C.2     1  UNL1        0.1008
     13 N          68.4726   94.0319   15.5171 N.2     1  UNL1       -0.1482
     14 N          68.8451   92.9054   16.4348 N.2     1  UNL1       -0.1467
     15 C          68.0242   91.7083   16.0565 C.2     1  UNL1        0.1198
     16 C          67.1442   92.0950   14.9049 C.2     1  UNL1        0.0238
     17 C          66.1264   91.3250   14.1168 C.3     1  UNL1        0.0705
     18 C          60.8433   87.5730   10.3312 C.3     1  UNL1        0.2096
     19 O          59.4879   87.4387   10.9594 O.3     1  UNL1       -0.3719
     20 H          59.0503   88.3043   10.9721 H       1  UNL1        0.2114
     21 C          61.7277   86.3695   10.1913 C.ar    1  UNL1        0.0139
     22 C          62.3133   86.0205    8.8551 C.ar    1  UNL1       -0.0014
     23 C          63.1977   84.8170    8.7151 C.ar    1  UNL1        0.0006
     24 C          63.4965   83.9626    9.9113 C.ar    1  UNL1        0.0114
     25 C          62.9109   84.3116   11.2474 C.ar    1  UNL1        0.0574
     26 CL         63.2096   83.4573   12.4434 Cl      1  UNL1       -0.0823
     27 C          62.0265   85.5151   11.3873 C.ar    1  UNL1        0.0099
@<TRIPOS>BOND
     1     1     2    2
     2     2    18    1
     3    18    19    1
     4    18    21    1
     5    21    22   ar
     6    22    23   ar
     7    23    24   ar
     8    24    25   ar
     9    25    26    1
    10    25    27   ar
    11     2     3   am
    12     3     4    1
    13     4     5    1
    14     5     6    1
    15     6     9    1
    16     9    10    2
    17    10    11    1
    18    11    12    2
    19    12    13    1
    20    13    14    2
    21    14    15    1
    22    15    16    2
    23    16    17    1
    24     6     7    1
    25     7     8    1
    26    27    21   ar
    27     8     3    1
    28    17     9    1
    29    16    12    1
    30    19    20    1
@<TRIPOS>MOLECULE
*****
 27 30 0 0 0
SMALL
GASTEIGER

@<TRIPOS>ATOM
      1 O          63.5082   90.4087   17.2505 O.2     1  UNL1       -0.2719
      2 C          63.8267   90.0397   15.8319 C.2     1  UNL1        0.2570
      3 N          63.7296   88.6099   15.3889 N.am    1  UNL1       -0.2738
      4 C          63.3141   87.5491   16.3645 C.3     1  UNL1        0.1149
      5 C          63.2171   86.1192   15.9215 C.3     1  UNL1        0.1121
      6 N          63.5355   85.7504   14.5029 N.pl3   1  UNL1       -0.3071
      7 C          63.9511   86.8112   13.5273 C.3     1  UNL1        0.1121
      8 C          64.0481   88.2410   13.9703 C.3     1  UNL1        0.1149
      9 C          63.4385   84.3205   14.0598 C.2     1  UNL1        0.0295
     10 C          64.5143   83.7274   13.1992 C.2     1  UNL1        0.0120
     11 C          64.4172   82.2975   12.7561 C.2     1  UNL1        0.0216
     12 C          63.2443   81.4610   13.1738 C.2     1  UNL1        0.1008
     13 N          62.8795   80.0332   12.8938 N.2     1  UNL1       -0.1482
     14 N          61.5782   79.7440   13.5815 N.2     1  UNL1       -0.1467
     15 C          61.1388   80.9930   14.2864 C.2     1  UNL1        0.1198
     16 C          62.1685   82.0542   14.0344 C.2     1  UNL1        0.0238
     17 C          62.2656   83.4839   14.4775 C.3     1  UNL1        0.0705
     18 C          64.2422   91.1006   14.8563 C.3     1  UNL1        0.2096
     19 O          63.2640   91.6086   13.8390 O.3     1  UNL1       -0.3719
     20 H          62.4163   91.1501   13.9484 H       1  UNL1        0.2114
     21 C          65.6360   91.6535   14.8981 C.ar    1  UNL1        0.0139
     22 C          66.0811   92.4777   16.0696 C.ar    1  UNL1       -0.0014
     23 C          67.4748   93.0305   16.1115 C.ar    1  UNL1        0.0006
     24 C          68.4236   92.7591   14.9817 C.ar    1  UNL1        0.0114
     25 C          67.9786   91.9349   13.8102 C.ar    1  UNL1        0.0574
     26 CL         68.9272   91.6635   12.6805 Cl      1  UNL1       -0.0823
     27 C          66.5847   91.3821   13.7684 C.ar    1  UNL1        0.0099
@<TRIPOS>BOND
     1     1     2    2
     2     2    18    1
     3    18    19    1
     4    18    21    1
     5    21    22   ar
     6    22    23   ar
     7    23    24   ar
     8    24    25   ar
     9    25    26    1
    10    25    27   ar
    11     2     3   am
    12     3     4    1
    13     4     5    1
    14     5     6    1
    15     6     9    1
    16     9    10    2
    17    10    11    1
    18    11    12    2
    19    12    13    1
    20    13    14    2
    21    14    15    1
    22    15    16    2
    23    16    17    1
    24     6     7    1
    25     7     8    1
    26    27    21   ar
    27     8     3    1
    28    17     9    1
    29    16    12    1
    30    19    20    1
@<TRIPOS>MOLECULE
*****
 27 30 0 0 0
SMALL
GASTEIGER

@<TRIPOS>ATOM
      1 O          59.9231   89.2886    7.8059 O.2     1  UNL1       -0.2719
      2 C          60.5287   88.4120    8.8618 C.2     1  UNL1        0.2570
      3 N          61.3726   89.0162    9.9447 N.am    1  UNL1       -0.2738
      4 C          61.6110   90.4969    9.9717 C.3     1  UNL1        0.1149
      5 C          62.4550   91.1010   11.0547 C.3     1  UNL1        0.1121
      6 N          63.0605   90.2245   12.1105 N.pl3   1  UNL1       -0.3071
      7 C          62.8222   88.7438   12.0835 C.3     1  UNL1        0.1121
      8 C          61.9783   88.1397   11.0006 C.3     1  UNL1        0.1149
      9 C          63.9045   90.8286   13.1935 C.2     1  UNL1        0.0295
     10 C          63.5802   90.5625   14.6336 C.2     1  UNL1        0.0120
     11 C          64.4242   91.1666   15.7166 C.2     1  UNL1        0.0216
     12 C          65.5925   92.0369   15.3593 C.2     1  UNL1        0.1008
     13 N          66.5973   92.7642   16.2029 N.2     1  UNL1       -0.1482
     14 N          67.5425   93.4799   15.2840 N.2     1  UNL1       -0.1467
     15 C          67.1220   93.1949   13.8726 C.2     1  UNL1        0.1198
     16 C          65.9168   92.3031   13.9192 C.2     1  UNL1        0.0238
     17 C          65.0728   91.6989   12.8363 C.3     1  UNL1        0.0705
     18 C          60.2903   86.9313    8.8348 C.3     1  UNL1        0.2096
     19 O          58.9489   86.3949    8.4317 O.3     1  UNL1       -0.3719
     20 H          58.3553   87.1328    8.2220 H       1  UNL1        0.2114
     21 C          61.3936   85.9872    9.2109 C.ar    1  UNL1        0.0139
     22 C          62.3922   85.5518    8.1797 C.ar    1  UNL1       -0.0014
     23 C          63.4954   84.6077    8.5558 C.ar    1  UNL1        0.0006
     24 C          63.6002   84.0989    9.9630 C.ar    1  UNL1        0.0114
     25 C          62.6016   84.5343   10.9941 C.ar    1  UNL1        0.0574
     26 CL         62.7063   84.0256   12.4013 Cl      1  UNL1       -0.0823
     27 C          61.4983   85.4785   10.6180 C.ar    1  UNL1        0.0099
@<TRIPOS>BOND
     1     1     2    2
     2     2    18    1
     3    18    19    1
     4    18    21    1
     5    21    22   ar
     6    22    23   ar
     7    23    24   ar
     8    24    25   ar
     9    25    26    1
    10    25    27   ar
    11     2     3   am
    12     3     4    1
    13     4     5    1
    14     5     6    1
    15     6     9    1
    16     9    10    2
    17    10    11    1
    18    11    12    2
    19    12    13    1
    20    13    14    2
    21    14    15    1
    22    15    16    2
    23    16    17    1
    24     6     7    1
    25     7     8    1
    26    27    21   ar
    27     8     3    1
    28    17     9    1
    29    16    12    1
    30    19    20    1
@<TRIPOS>MOLECULE
*****
 27 30 0 0 0
SMALL
GASTEIGER

@<TRIPOS>ATOM
      1 O          59.5857   88.2444   12.0809 O.2     1  UNL1       -0.2719
      2 C          60.5340   88.9481   11.1558 C.2     1  UNL1        0.2570
      3 N          61.7149   89.6869   11.7122 N.am    1  UNL1       -0.2738
      4 C          61.9475   89.7221   13.1936 C.3     1  UNL1        0.1149
      5 C          63.1285   90.4610   13.7499 C.3     1  UNL1        0.1121
      6 N          64.0767   91.1646   12.8249 N.pl3   1  UNL1       -0.3071
      7 C          63.8440   91.1294   11.3435 C.3     1  UNL1        0.1121
      8 C          62.6631   90.3905   10.7871 C.3     1  UNL1        0.1149
      9 C          65.2577   91.9035   13.3812 C.2     1  UNL1        0.0295
     10 C          65.6782   93.2098   12.7758 C.2     1  UNL1        0.0120
     11 C          66.8592   93.9487   13.3322 C.2     1  UNL1        0.0216
     12 C          67.6195   93.3811   14.4939 C.2     1  UNL1        0.1008
     13 N          68.8154   93.8789   15.2502 N.2     1  UNL1       -0.1482
     14 N          69.1340   92.8801   16.3231 N.2     1  UNL1       -0.1467
     15 C          68.1349   91.7651   16.2299 C.2     1  UNL1        0.1198
     16 C          67.1989   92.0747   15.0994 C.2     1  UNL1        0.0238
     17 C          66.0180   91.3359   14.5430 C.3     1  UNL1        0.0705
     18 C          60.3013   88.9128    9.6744 C.3     1  UNL1        0.2096
     19 O          59.7793   90.1287    8.9681 O.3     1  UNL1       -0.3719
     20 H          59.6468   90.8436    9.6101 H       1  UNL1        0.2114
     21 C          60.5908   87.6616    8.8993 C.ar    1  UNL1        0.0139
     22 C          59.6103   87.1694    7.8764 C.ar    1  UNL1       -0.0014
     23 C          59.8997   85.9182    7.1013 C.ar    1  UNL1        0.0006
     24 C          61.1695   85.1592    7.3492 C.ar    1  UNL1        0.0114
     25 C          62.1500   85.6514    8.3721 C.ar    1  UNL1        0.0574
     26 CL         63.4198   84.8925    8.6199 Cl      1  UNL1       -0.0823
     27 C          61.8606   86.9027    9.1472 C.ar    1  UNL1        0.0099
@<TRIPOS>BOND
     1     1     2    2
     2     2    18    1
     3    18    19    1
     4    18    21    1
     5    21    22   ar
     6    22    23   ar
     7    23    24   ar
     8    24    25   ar
     9    25    26    1
    10    25    27   ar
    11     2     3   am
    12     3     4    1
    13     4     5    1
    14     5     6    1
    15     6     9    1
    16     9    10    2
    17    10    11    1
    18    11    12    2
    19    12    13    1
    20    13    14    2
    21    14    15    1
    22    15    16    2
    23    16    17    1
    24     6     7    1
    25     7     8    1
    26    27    21   ar
    27     8     3    1
    28    17     9    1
    29    16    12    1
    30    19    20    1
@<TRIPOS>MOLECULE
*****
 27 30 0 0 0
SMALL
GASTEIGER

@<TRIPOS>ATOM
      1 O          61.0756   89.7229    9.2386 O.2     1  UNL1       -0.2719
      2 C          61.5741   89.0057   10.4581 C.2     1  UNL1        0.2570
      3 N          62.5899   89.6576   11.3487 N.am    1  UNL1       -0.2738
      4 C          63.1071   91.0266   11.0199 C.3     1  UNL1        0.1149
      5 C          64.1229   91.6785   11.9106 C.3     1  UNL1        0.1121
      6 N          64.6215   90.9613   13.1300 N.pl3   1  UNL1       -0.3071
      7 C          64.1043   89.5922   13.4588 C.3     1  UNL1        0.1121
      8 C          63.0885   88.9404   12.5682 C.3     1  UNL1        0.1149
      9 C          65.6373   91.6131   14.0207 C.2     1  UNL1        0.0295
     10 C          65.2437   92.0808   15.3904 C.2     1  UNL1        0.0120
     11 C          66.2595   92.7326   16.2812 C.2     1  UNL1        0.0216
     12 C          67.6690   92.9167   15.8020 C.2     1  UNL1        0.1008
     13 N          68.8790   93.5202   16.4513 N.2     1  UNL1       -0.1482
     14 N          70.0205   93.4255   15.4827 N.2     1  UNL1       -0.1467
     15 C          69.5159   92.7635   14.2349 C.2     1  UNL1        0.1198
     16 C          68.0626   92.4490   14.4322 C.2     1  UNL1        0.0238
     17 C          67.0467   91.7972   13.5416 C.3     1  UNL1        0.0705
     18 C          61.0570   87.6366   10.7869 C.3     1  UNL1        0.2096
     19 O          59.7905   87.4828   11.5756 O.3     1  UNL1       -0.3719
     20 H          59.4357   88.3593   11.7918 H       1  UNL1        0.2114
     21 C          61.8064   86.4214   10.3268 C.ar    1  UNL1        0.0139
     22 C          62.3728   85.4640   11.3332 C.ar    1  UNL1       -0.0014
     23 C          63.1222   84.2488   10.8732 C.ar    1  UNL1        0.0006
     24 C          63.3053   83.9909    9.4069 C.ar    1  UNL1        0.0114
     25 C          62.7389   84.9483    8.4006 C.ar    1  UNL1        0.0574
     26 CL         62.9220   84.6904    6.9344 Cl      1  UNL1       -0.0823
     27 C          61.9895   86.1635    8.8606 C.ar    1  UNL1        0.0099
@<TRIPOS>BOND
     1     1     2    2
     2     2    18    1
     3    18    19    1
     4    18    21    1
     5    21    22   ar
     6    22    23   ar
     7    23    24   ar
     8    24    25   ar
     9    25    26    1
    10    25    27   ar
    11     2     3   am
    12     3     4    1
    13     4     5    1
    14     5     6    1
    15     6     9    1
    16     9    10    2
    17    10    11    1
    18    11    12    2
    19    12    13    1
    20    13    14    2
    21    14    15    1
    22    15    16    2
    23    16    17    1
    24     6     7    1
    25     7     8    1
    26    27    21   ar
    27     8     3    1
    28    17     9    1
    29    16    12    1
    30    19    20    1
@<TRIPOS>MOLECULE
*****
 27 30 0 0 0
SMALL
GASTEIGER

@<TRIPOS>ATOM
      1 O          64.7580   89.7382   15.1168 O.2     1  UNL1       -0.2719
      2 C          64.0459   89.2810   13.8783 C.2     1  UNL1        0.2570
      3 N          63.8231   87.8172   13.6383 N.am    1  UNL1       -0.2738
      4 C          64.3125   86.8105   14.6369 C.3     1  UNL1        0.1149
      5 C          64.0897   85.3467   14.3969 C.3     1  UNL1        0.1121
      6 N          63.3776   84.8895   13.1584 N.pl3   1  UNL1       -0.3071
      7 C          62.8883   85.8962   12.1598 C.3     1  UNL1        0.1121
      8 C          63.1110   87.3600   12.3998 C.3     1  UNL1        0.1149
      9 C          63.1548   83.4257   12.9184 C.2     1  UNL1        0.0295
     10 C          62.7861   82.5260   14.0605 C.2     1  UNL1        0.0120
     11 C          62.5633   81.0621   13.8205 C.2     1  UNL1        0.0216
     12 C          62.7093   80.4981   12.4382 C.2     1  UNL1        0.1008
     13 N          62.5531   79.1065   11.9004 N.2     1  UNL1       -0.1482
     14 N          62.8253   79.1463   10.4259 N.2     1  UNL1       -0.1467
     15 C          63.1497   80.5624   10.0524 C.2     1  UNL1        0.1198
     16 C          63.0780   81.3978   11.2961 C.2     1  UNL1        0.0238
     17 C          63.3008   82.8616   11.5362 C.3     1  UNL1        0.0705
     18 C          63.5566   90.2877   12.8797 C.3     1  UNL1        0.2096
     19 O          62.1748   90.1672   12.3088 O.3     1  UNL1       -0.3719
     20 H          61.7350   89.3902   12.6878 H       1  UNL1        0.2114
     21 C          64.4492   91.4148   12.4520 C.ar    1  UNL1        0.0139
     22 C          64.5478   91.7844   11.0016 C.ar    1  UNL1       -0.0014
     23 C          65.4404   92.9115   10.5739 C.ar    1  UNL1        0.0006
     24 C          66.2344   93.6690   11.5966 C.ar    1  UNL1        0.0114
     25 C          66.1358   93.2994   13.0470 C.ar    1  UNL1        0.0574
     26 CL         66.9296   94.0568   14.0696 Cl      1  UNL1       -0.0823
     27 C          65.2431   92.1722   13.4746 C.ar    1  UNL1        0.0099
@<TRIPOS>BOND
     1     1     2    2
     2     2    18    1
     3    18    19    1
     4    18    21    1
     5    21    22   ar
     6    22    23   ar
     7    23    24   ar
     8    24    25   ar
     9    25    26    1
    10    25    27   ar
    11     2     3   am
    12     3     4    1
    13     4     5    1
    14     5     6    1
    15     6     9    1
    16     9    10    2
    17    10    11    1
    18    11    12    2
    19    12    13    1
    20    13    14    2
    21    14    15    1
    22    15    16    2
    23    16    17    1
    24     6     7    1
    25     7     8    1
    26    27    21   ar
    27     8     3    1
    28    17     9    1
    29    16    12    1
    30    19    20    1
@<TRIPOS>MOLECULE
*****
 27 30 0 0 0
SMALL
GASTEIGER

@<TRIPOS>ATOM
      1 O          64.4906   88.1395   15.6704 O.2     1  UNL1       -0.2719
      2 C          64.0649   89.0091   14.5247 C.2     1  UNL1        0.2570
      3 N          63.5171   88.3874   13.2744 N.am    1  UNL1       -0.2738
      4 C          63.3951   86.8961   13.1696 C.3     1  UNL1        0.1149
      5 C          62.8473   86.2744   11.9192 C.3     1  UNL1        0.1121
      6 N          62.4215   87.1440   10.7736 N.pl3   1  UNL1       -0.3071
      7 C          62.5436   88.6354   10.8784 C.3     1  UNL1        0.1121
      8 C          63.0913   89.2571   12.1288 C.3     1  UNL1        0.1149
      9 C          61.8737   86.5224    9.5232 C.2     1  UNL1        0.0295
     10 C          60.4185   86.6664    9.1894 C.2     1  UNL1        0.0120
     11 C          59.8707   86.0447    7.9389 C.2     1  UNL1        0.0216
     12 C          60.7783   85.2791    7.0224 C.2     1  UNL1        0.1008
     13 N          60.5261   84.5619    5.7293 N.2     1  UNL1       -0.1482
     14 N          61.8256   83.9746    5.2640 N.2     1  UNL1       -0.1467
     15 C          62.8808   84.3289    6.2695 C.2     1  UNL1        0.1198
     16 C          62.2336   85.1351    7.3562 C.2     1  UNL1        0.0238
     17 C          62.7813   85.7568    8.6066 C.3     1  UNL1        0.0705
     18 C          64.1869   90.5004   14.6295 C.3     1  UNL1        0.2096
     19 O          63.1957   91.2788   15.4429 O.3     1  UNL1       -0.3719
     20 H          62.5472   90.6706   15.8308 H       1  UNL1        0.2114
     21 C          65.3002   91.2134   13.9207 C.ar    1  UNL1        0.0139
     22 C          66.6858   91.1987   14.4952 C.ar    1  UNL1       -0.0014
     23 C          67.7991   91.9116   13.7865 C.ar    1  UNL1        0.0006
     24 C          67.5269   92.6393   12.5034 C.ar    1  UNL1        0.0114
     25 C          66.1413   92.6541   11.9290 C.ar    1  UNL1        0.0574
     26 CL         65.8691   93.3817   10.6459 Cl      1  UNL1       -0.0823
     27 C          65.0280   91.9411   12.6377 C.ar    1  UNL1        0.0099
@<TRIPOS>BOND
     1     1     2    2
     2     2    18    1
     3    18    19    1
     4    18    21    1
     5    21    22   ar
     6    22    23   ar
     7    23    24   ar
     8    24    25   ar
     9    25    26    1
    10    25    27   ar
    11     2     3   am
    12     3     4    1
    13     4     5    1
    14     5     6    1
    15     6     9    1
    16     9    10    2
    17    10    11    1
    18    11    12    2
    19    12    13    1
    20    13    14    2
    21    14    15    1
    22    15    16    2
    23    16    17    1
    24     6     7    1
    25     7     8    1
    26    27    21   ar
    27     8     3    1
    28    17     9    1
    29    16    12    1
    30    19    20    1
