@<TRIPOS>MOLECULE
*****
 41 45 0 0 0
SMALL
GASTEIGER

@<TRIPOS>ATOM
      1 C          60.0949   88.7194    8.0162 C.ar    1  UNL1        0.0014
      2 C          60.1971   87.2411    7.7838 C.ar    1  UNL1        0.0032
      3 C          60.5583   86.3269    8.9169 C.ar    1  UNL1        0.0388
      4 C          60.8172   86.8910   10.2824 C.ar    1  UNL1        0.1586
      5 C          60.7150   88.3694   10.5148 C.ar    1  UNL1        0.0865
      6 C          60.3539   89.2836    9.3818 C.ar    1  UNL1        0.0178
      7 C          59.0116   91.4619    4.6170 C.ar    1  UNL1        0.1397
      8 C          60.4495   91.1251    4.8799 C.ar    1  UNL1        0.0369
      9 C          60.8106   90.2110    6.0129 C.ar    1  UNL1        0.0031
     10 C          59.7338   89.6336    6.8832 C.ar    1  UNL1        0.0003
     11 C          58.2960   89.9704    6.6203 C.ar    1  UNL1        0.0042
     12 C          57.9349   90.8846    5.4871 C.ar    1  UNL1        0.0479
     13 C          56.4970   91.2214    5.2242 C.2     1  UNL1        0.0758
     14 O          55.4107   90.3205    5.7323 O.co2   1  UNL1       -0.5445
     15 O          56.1455   92.4592    4.4532 O.co2   1  UNL1       -0.5445
     16 C          59.7196   92.8935    2.5677 C.3     1  UNL1        0.2525
     17 O          58.6505   92.3761    3.4839 O.3     1  UNL1       -0.4714
     18 N          60.9739   88.9336   11.8804 N.am    1  UNL1       -0.2656
     19 C          62.2474   89.6767   12.1558 C.2     1  UNL1        0.3082
     20 O          63.2621   89.8556   11.0656 O.2     1  UNL1       -0.2521
     21 N          62.5063   90.2408   13.5213 N.am    1  UNL1       -0.2683
     22 H          60.3079   88.8162   12.5959 H       1  UNL1        0.1565
     23 H          61.8404   90.1234   14.2368 H       1  UNL1        0.1564
     24 C          63.7799   90.9839   13.7967 C.ar    1  UNL1        0.0476
     25 C          64.5160   91.6525   12.6737 C.ar    1  UNL1        0.0144
     26 C          65.7896   92.3956   12.9491 C.ar    1  UNL1        0.0013
     27 C          66.3270   92.4701   14.3475 C.ar    1  UNL1       -0.0002
     28 C          65.5909   91.8015   15.4705 C.ar    1  UNL1       -0.0030
     29 C          64.3174   91.0585   15.1952 C.ar    1  UNL1       -0.0083
     30 C          63.5812   90.3899   16.3182 C.3     1  UNL1        0.0323
     31 O          61.1783   85.9769   11.4155 O.3     1  UNL1       -0.4526
     32 C          62.2684   84.9613   11.2416 C.ar    1  UNL1        0.1410
     33 C          62.8551   84.7159    9.8831 C.ar    1  UNL1        0.0371
     34 C          63.9452   83.7003    9.7092 C.ar    1  UNL1        0.0028
     35 C          64.4487   82.9302   10.8938 C.ar    1  UNL1       -0.0044
     36 C          63.8621   83.1756   12.2524 C.ar    1  UNL1       -0.0232
     37 C          62.7720   84.1912   12.4263 C.ar    1  UNL1        0.0084
     38 C          62.1853   84.4366   13.7848 C.3     1  UNL1        0.0291
     39 C          62.6888   83.6665   14.9694 C.3     1  UNL1        0.0051
     40 C          63.7790   82.6510   14.7955 C.3     1  UNL1        0.0050
     41 C          64.3656   82.4055   13.4370 C.3     1  UNL1        0.0261
@<TRIPOS>UNITY_ATOM_ATTR
14 1
charge -1
@<TRIPOS>BOND
     1    16    17    1
     2    17     7    1
     3     7     8   ar
     4     8     9   ar
     5     9    10   ar
     6    10     1    1
     7     1     2   ar
     8     2     3   ar
     9     3     4   ar
    10     4    31    1
    11    31    32    1
    12    32    33   ar
    13    33    34   ar
    14    34    35   ar
    15    35    36   ar
    16    36    37   ar
    17    37    38    1
    18    38    39    1
    19    39    40    1
    20    40    41    1
    21     4     5   ar
    22     5    18    1
    23    18    19   am
    24    19    20    2
    25    19    21   am
    26    21    24    1
    27    24    25   ar
    28    25    26   ar
    29    26    27   ar
    30    27    28   ar
    31    28    29   ar
    32    29    30    1
    33     5     6   ar
    34    10    11   ar
    35    11    12   ar
    36    12    13    1
    37    13    14   ar
    38    13    15   ar
    39    12     7   ar
    40     6     1   ar
    41    37    32   ar
    42    29    24   ar
    43    41    36    1
    44    18    22    1
    45    21    23    1
@<TRIPOS>MOLECULE
*****
 41 45 0 0 0
SMALL
GASTEIGER

@<TRIPOS>ATOM
      1 C          60.0022   89.1474    7.3355 C.ar    1  UNL1        0.0014
      2 C          59.9209   87.6703    7.0874 C.ar    1  UNL1        0.0032
      3 C          60.1901   86.7062    8.2046 C.ar    1  UNL1        0.0388
      4 C          60.5406   87.2192    9.5699 C.ar    1  UNL1        0.1586
      5 C          60.6219   88.6964    9.8179 C.ar    1  UNL1        0.0865
      6 C          60.3527   89.6604    8.7007 C.ar    1  UNL1        0.0178
      7 C          59.1945   92.0395    3.9839 C.ar    1  UNL1        0.1397
      8 C          58.0606   91.5253    4.8204 C.ar    1  UNL1        0.0369
      9 C          58.3298   90.5613    5.9376 C.ar    1  UNL1        0.0031
     10 C          59.7330   90.1114    6.2183 C.ar    1  UNL1        0.0003
     11 C          60.8669   90.6256    5.3818 C.ar    1  UNL1        0.0042
     12 C          60.5977   91.5897    4.2645 C.ar    1  UNL1        0.0479
     13 C          61.7316   92.1039    3.4280 C.2     1  UNL1        0.0758
     14 O          61.5499   93.3384    2.5957 O.co2   1  UNL1       -0.5445
     15 O          63.0473   91.3834    3.4238 O.co2   1  UNL1       -0.5445
     16 C          58.9581   92.5305    1.4436 C.3     1  UNL1        0.2525
     17 O          58.9253   93.0035    2.8667 O.3     1  UNL1       -0.4714
     18 N          60.9723   89.2094   11.1832 N.am    1  UNL1       -0.2656
     19 C          62.3119   89.8389   11.4268 C.2     1  UNL1        0.3082
     20 O          63.3009   89.9553   10.3051 O.2     1  UNL1       -0.2521
     21 N          62.6623   90.3520   12.7920 N.am    1  UNL1       -0.2683
     22 H          60.3232   89.1330   11.9194 H       1  UNL1        0.1565
     23 H          62.0132   90.2755   13.5282 H       1  UNL1        0.1564
     24 C          64.0019   90.9814   13.0356 C.ar    1  UNL1        0.0476
     25 C          64.5064   92.0517   12.1137 C.ar    1  UNL1        0.0144
     26 C          65.8460   92.6812   12.3574 C.ar    1  UNL1        0.0013
     27 C          66.6810   92.2404   13.5229 C.ar    1  UNL1       -0.0002
     28 C          66.1765   91.1701   14.4448 C.ar    1  UNL1       -0.0030
     29 C          64.8369   90.5406   14.2012 C.ar    1  UNL1       -0.0083
     30 C          64.3324   89.4703   15.1231 C.3     1  UNL1        0.0323
     31 O          60.8098   86.2552   10.6870 O.3     1  UNL1       -0.4526
     32 C          61.9670   85.3053   10.5955 C.ar    1  UNL1        0.1410
     33 C          62.5564   84.9679    9.2580 C.ar    1  UNL1        0.0371
     34 C          63.7137   84.0179    9.1665 C.ar    1  UNL1        0.0028
     35 C          64.2816   83.4054   10.4123 C.ar    1  UNL1       -0.0044
     36 C          63.6922   83.7428   11.7499 C.ar    1  UNL1       -0.0232
     37 C          62.5349   84.6927   11.8414 C.ar    1  UNL1        0.0084
     38 C          61.9456   85.0301   13.1789 C.3     1  UNL1        0.0291
     39 C          62.5135   84.4176   14.4247 C.3     1  UNL1        0.0051
     40 C          63.6707   83.4676   14.3332 C.3     1  UNL1        0.0050
     41 C          64.2601   83.1302   12.9957 C.3     1  UNL1        0.0261
@<TRIPOS>UNITY_ATOM_ATTR
14 1
charge -1
@<TRIPOS>BOND
     1    16    17    1
     2    17     7    1
     3     7     8   ar
     4     8     9   ar
     5     9    10   ar
     6    10     1    1
     7     1     2   ar
     8     2     3   ar
     9     3     4   ar
    10     4    31    1
    11    31    32    1
    12    32    33   ar
    13    33    34   ar
    14    34    35   ar
    15    35    36   ar
    16    36    37   ar
    17    37    38    1
    18    38    39    1
    19    39    40    1
    20    40    41    1
    21     4     5   ar
    22     5    18    1
    23    18    19   am
    24    19    20    2
    25    19    21   am
    26    21    24    1
    27    24    25   ar
    28    25    26   ar
    29    26    27   ar
    30    27    28   ar
    31    28    29   ar
    32    29    30    1
    33     5     6   ar
    34    10    11   ar
    35    11    12   ar
    36    12    13    1
    37    13    14   ar
    38    13    15   ar
    39    12     7   ar
    40     6     1   ar
    41    37    32   ar
    42    29    24   ar
    43    41    36    1
    44    18    22    1
    45    21    23    1
@<TRIPOS>MOLECULE
*****
 41 45 0 0 0
SMALL
GASTEIGER

@<TRIPOS>ATOM
      1 C          64.5264   89.0520   13.7404 C.ar    1  UNL1        0.0014
      2 C          65.0434   88.1983   14.8602 C.ar    1  UNL1        0.0032
      3 C          64.5578   86.7873   15.0133 C.ar    1  UNL1        0.0388
      4 C          63.5554   86.2300   14.0466 C.ar    1  UNL1        0.1586
      5 C          63.0384   87.0838   12.9268 C.ar    1  UNL1        0.0865
      6 C          63.5239   88.4947   12.7737 C.ar    1  UNL1        0.0178
      7 C          65.9830   93.2849   13.2811 C.ar    1  UNL1        0.1397
      8 C          64.9657   92.7340   12.3263 C.ar    1  UNL1        0.0369
      9 C          64.4802   91.3230   12.4793 C.ar    1  UNL1        0.0031
     10 C          65.0119   90.4629   13.5873 C.ar    1  UNL1        0.0003
     11 C          66.0292   91.0138   14.5421 C.ar    1  UNL1        0.0042
     12 C          66.5147   92.4248   14.3890 C.ar    1  UNL1        0.0479
     13 C          67.5320   92.9757   15.3438 C.2     1  UNL1        0.0758
     14 O          68.9395   93.2155   14.8842 O.co2   1  UNL1       -0.5445
     15 O          67.1416   93.2868   16.7584 O.co2   1  UNL1       -0.5445
     16 C          66.3463   95.3916   11.8047 C.3     1  UNL1        0.2525
     17 O          66.4685   94.6958   13.1280 O.3     1  UNL1       -0.4714
     18 N          62.0359   86.5265   11.9601 N.am    1  UNL1       -0.2656
     19 C          61.5581   87.3625   10.8100 C.2     1  UNL1        0.3082
     20 O          62.0827   88.7557   10.6265 O.2     1  UNL1       -0.2521
     21 N          60.5556   86.8052    9.8433 N.am    1  UNL1       -0.2683
     22 H          61.6916   85.6121   12.0805 H       1  UNL1        0.1565
     23 H          60.2113   85.8908    9.9637 H       1  UNL1        0.1564
     24 C          60.0778   87.6411    8.6932 C.ar    1  UNL1        0.0476
     25 C          59.8669   89.1152    8.8740 C.ar    1  UNL1        0.0144
     26 C          59.3890   89.9511    7.7238 C.ar    1  UNL1        0.0013
     27 C          59.1220   89.3130    6.3928 C.ar    1  UNL1       -0.0002
     28 C          59.3329   87.8390    6.2120 C.ar    1  UNL1       -0.0030
     29 C          59.8107   87.0030    7.3621 C.ar    1  UNL1       -0.0083
     30 C          60.0216   85.5290    7.1813 C.3     1  UNL1        0.0323
     31 O          63.0698   84.8191   14.1997 O.3     1  UNL1       -0.4526
     32 C          63.3790   83.8007   13.1427 C.ar    1  UNL1        0.1410
     33 C          64.2810   84.1573   11.9985 C.ar    1  UNL1        0.0371
     34 C          64.5902   83.1389   10.9415 C.ar    1  UNL1        0.0028
     35 C          63.9973   81.7639   11.0286 C.ar    1  UNL1       -0.0044
     36 C          63.0952   81.4071   12.1728 C.ar    1  UNL1       -0.0232
     37 C          62.7861   82.4255   13.2298 C.ar    1  UNL1        0.0084
     38 C          61.8840   82.0689   14.3740 C.3     1  UNL1        0.0291
     39 C          61.2912   80.6938   14.4611 C.3     1  UNL1        0.0051
     40 C          61.6003   79.6754   13.4041 C.3     1  UNL1        0.0050
     41 C          62.5023   80.0321   12.2599 C.3     1  UNL1        0.0261
@<TRIPOS>UNITY_ATOM_ATTR
14 1
charge -1
@<TRIPOS>BOND
     1    16    17    1
     2    17     7    1
     3     7     8   ar
     4     8     9   ar
     5     9    10   ar
     6    10     1    1
     7     1     2   ar
     8     2     3   ar
     9     3     4   ar
    10     4    31    1
    11    31    32    1
    12    32    33   ar
    13    33    34   ar
    14    34    35   ar
    15    35    36   ar
    16    36    37   ar
    17    37    38    1
    18    38    39    1
    19    39    40    1
    20    40    41    1
    21     4     5   ar
    22     5    18    1
    23    18    19   am
    24    19    20    2
    25    19    21   am
    26    21    24    1
    27    24    25   ar
    28    25    26   ar
    29    26    27   ar
    30    27    28   ar
    31    28    29   ar
    32    29    30    1
    33     5     6   ar
    34    10    11   ar
    35    11    12   ar
    36    12    13    1
    37    13    14   ar
    38    13    15   ar
    39    12     7   ar
    40     6     1   ar
    41    37    32   ar
    42    29    24   ar
    43    41    36    1
    44    18    22    1
    45    21    23    1
@<TRIPOS>MOLECULE
*****
 41 45 0 0 0
SMALL
GASTEIGER

@<TRIPOS>ATOM
      1 C          60.0495   89.0630    7.5399 C.ar    1  UNL1        0.0014
      2 C          59.1024   87.9342    7.8202 C.ar    1  UNL1        0.0032
      3 C          59.3891   86.9742    8.9366 C.ar    1  UNL1        0.0388
      4 C          60.6229   87.1432    9.7727 C.ar    1  UNL1        0.1586
      5 C          61.5701   88.2721    9.4924 C.ar    1  UNL1        0.0865
      6 C          61.2833   89.2320    8.3760 C.ar    1  UNL1        0.0178
      7 C          59.1893   91.9427    4.1906 C.ar    1  UNL1        0.1397
      8 C          58.0696   91.4376    5.0516 C.ar    1  UNL1        0.0369
      9 C          58.3564   90.4777    6.1680 C.ar    1  UNL1        0.0031
     10 C          59.7628   90.0229    6.4235 C.ar    1  UNL1        0.0003
     11 C          60.8824   90.5280    5.5625 C.ar    1  UNL1        0.0042
     12 C          60.5956   91.4879    4.4460 C.ar    1  UNL1        0.0479
     13 C          61.7153   91.9930    3.5851 C.2     1  UNL1        0.0758
     14 O          63.0380   91.2858    3.5837 O.co2   1  UNL1       -0.5445
     15 O          61.5121   93.2054    2.7254 O.co2   1  UNL1       -0.5445
     16 C          58.9936   92.4440    1.6489 C.3     1  UNL1        0.2525
     17 O          58.9026   92.9026    3.0743 O.3     1  UNL1       -0.4714
     18 N          62.8039   88.4411   10.3285 N.am    1  UNL1       -0.2656
     19 C          62.6942   88.9630   11.7305 C.2     1  UNL1        0.3082
     20 O          61.3506   89.3159   12.2963 O.2     1  UNL1       -0.2521
     21 N          63.9280   89.1320   12.5666 N.am    1  UNL1       -0.2683
     22 H          63.6857   88.2095    9.9571 H       1  UNL1        0.1565
     23 H          64.8098   88.9004   12.1952 H       1  UNL1        0.1564
     24 C          63.8183   89.6539   13.9685 C.ar    1  UNL1        0.0476
     25 C          63.2052   88.8020   15.0402 C.ar    1  UNL1        0.0144
     26 C          63.0954   89.3240   16.4422 C.ar    1  UNL1        0.0013
     27 C          63.5988   90.6978   16.7725 C.ar    1  UNL1       -0.0002
     28 C          64.2119   91.5497   15.7009 C.ar    1  UNL1       -0.0030
     29 C          64.3216   91.0278   14.2990 C.ar    1  UNL1       -0.0083
     30 C          64.9347   91.8798   13.2274 C.3     1  UNL1        0.0323
     31 O          60.9097   86.1833   10.8891 O.3     1  UNL1       -0.4526
     32 C          62.0442   85.2096   10.7682 C.ar    1  UNL1        0.1410
     33 C          62.6101   84.8812    9.4185 C.ar    1  UNL1        0.0371
     34 C          63.7447   83.9075    9.2976 C.ar    1  UNL1        0.0028
     35 C          64.3134   83.2621   10.5265 C.ar    1  UNL1       -0.0044
     36 C          63.7475   83.5905   11.8763 C.ar    1  UNL1       -0.0232
     37 C          62.6129   84.5643   11.9972 C.ar    1  UNL1        0.0084
     38 C          62.0470   84.8927   13.3469 C.3     1  UNL1        0.0291
     39 C          62.6157   84.2474   14.5758 C.3     1  UNL1        0.0051
     40 C          63.7502   83.2736   14.4549 C.3     1  UNL1        0.0050
     41 C          64.3161   82.9452   13.1051 C.3     1  UNL1        0.0261
@<TRIPOS>UNITY_ATOM_ATTR
14 1
charge -1
@<TRIPOS>BOND
     1    16    17    1
     2    17     7    1
     3     7     8   ar
     4     8     9   ar
     5     9    10   ar
     6    10     1    1
     7     1     2   ar
     8     2     3   ar
     9     3     4   ar
    10     4    31    1
    11    31    32    1
    12    32    33   ar
    13    33    34   ar
    14    34    35   ar
    15    35    36   ar
    16    36    37   ar
    17    37    38    1
    18    38    39    1
    19    39    40    1
    20    40    41    1
    21     4     5   ar
    22     5    18    1
    23    18    19   am
    24    19    20    2
    25    19    21   am
    26    21    24    1
    27    24    25   ar
    28    25    26   ar
    29    26    27   ar
    30    27    28   ar
    31    28    29   ar
    32    29    30    1
    33     5     6   ar
    34    10    11   ar
    35    11    12   ar
    36    12    13    1
    37    13    14   ar
    38    13    15   ar
    39    12     7   ar
    40     6     1   ar
    41    37    32   ar
    42    29    24   ar
    43    41    36    1
    44    18    22    1
    45    21    23    1
@<TRIPOS>MOLECULE
*****
 41 45 0 0 0
SMALL
GASTEIGER

@<TRIPOS>ATOM
      1 C          65.5924   92.6261   12.4310 C.ar    1  UNL1        0.0014
      2 C          66.3576   92.3038   13.6802 C.ar    1  UNL1        0.0032
      3 C          65.7773   91.3619   14.6932 C.ar    1  UNL1        0.0388
      4 C          64.4317   90.7424   14.4570 C.ar    1  UNL1        0.1586
      5 C          63.6665   91.0648   13.2077 C.ar    1  UNL1        0.0865
      6 C          64.2468   92.0066   12.1948 C.ar    1  UNL1        0.0178
      7 C          67.3333   95.4518    9.3921 C.ar    1  UNL1        0.1397
      8 C          66.5779   95.9904   10.5708 C.ar    1  UNL1        0.0369
      9 C          65.9976   95.0485   11.5837 C.ar    1  UNL1        0.0031
     10 C          66.1727   93.5680   11.4181 C.ar    1  UNL1        0.0003
     11 C          66.9281   93.0294   10.2394 C.ar    1  UNL1        0.0042
     12 C          67.5084   93.9713    9.2264 C.ar    1  UNL1        0.0479
     13 C          68.2639   93.4327    8.0478 C.2     1  UNL1        0.0758
     14 O          69.1004   92.1963    8.1944 O.co2   1  UNL1       -0.5445
     15 O          68.1827   94.1306    6.7224 O.co2   1  UNL1       -0.5445
     16 C          67.0803   96.8554    7.2205 C.3     1  UNL1        0.2525
     17 O          67.9136   96.3936    8.3792 O.3     1  UNL1       -0.4714
     18 N          62.3210   90.4453   12.9715 N.am    1  UNL1       -0.2656
     19 C          62.0512   89.7011   11.6974 C.2     1  UNL1        0.3082
     20 O          63.1270   89.5764   10.6595 O.2     1  UNL1       -0.2521
     21 N          60.7057   89.0816   11.4611 N.am    1  UNL1       -0.2683
     22 H          61.6150   90.5271   13.6527 H       1  UNL1        0.1565
     23 H          59.9997   89.1634   12.1423 H       1  UNL1        0.1564
     24 C          60.4360   88.3374   10.1870 C.ar    1  UNL1        0.0476
     25 C          59.8264   89.0505    9.0166 C.ar    1  UNL1        0.0144
     26 C          59.5566   88.3062    7.7425 C.ar    1  UNL1        0.0013
     27 C          59.8964   86.8489    7.6388 C.ar    1  UNL1       -0.0002
     28 C          60.5060   86.1358    8.8093 C.ar    1  UNL1       -0.0030
     29 C          60.7758   86.8800   10.0833 C.ar    1  UNL1       -0.0083
     30 C          61.3853   86.1669   11.2538 C.3     1  UNL1        0.0323
     31 O          63.8514   89.8005   15.4699 O.3     1  UNL1       -0.4526
     32 C          63.8356   88.3251   15.1996 C.ar    1  UNL1        0.1410
     33 C          64.2532   87.8042   13.8565 C.ar    1  UNL1        0.0371
     34 C          64.2373   86.3288   13.5862 C.ar    1  UNL1        0.0028
     35 C          63.8039   85.3744   14.6591 C.ar    1  UNL1       -0.0044
     36 C          63.3863   85.8953   16.0024 C.ar    1  UNL1       -0.0232
     37 C          63.4021   87.3707   16.2726 C.ar    1  UNL1        0.0084
     38 C          62.9845   87.8917   17.6158 C.3     1  UNL1        0.0291
     39 C          62.5511   86.9372   18.6887 C.3     1  UNL1        0.0051
     40 C          62.5353   85.4619   18.4184 C.3     1  UNL1        0.0050
     41 C          62.9529   84.9409   17.0753 C.3     1  UNL1        0.0261
@<TRIPOS>UNITY_ATOM_ATTR
14 1
charge -1
@<TRIPOS>BOND
     1    16    17    1
     2    17     7    1
     3     7     8   ar
     4     8     9   ar
     5     9    10   ar
     6    10     1    1
     7     1     2   ar
     8     2     3   ar
     9     3     4   ar
    10     4    31    1
    11    31    32    1
    12    32    33   ar
    13    33    34   ar
    14    34    35   ar
    15    35    36   ar
    16    36    37   ar
    17    37    38    1
    18    38    39    1
    19    39    40    1
    20    40    41    1
    21     4     5   ar
    22     5    18    1
    23    18    19   am
    24    19    20    2
    25    19    21   am
    26    21    24    1
    27    24    25   ar
    28    25    26   ar
    29    26    27   ar
    30    27    28   ar
    31    28    29   ar
    32    29    30    1
    33     5     6   ar
    34    10    11   ar
    35    11    12   ar
    36    12    13    1
    37    13    14   ar
    38    13    15   ar
    39    12     7   ar
    40     6     1   ar
    41    37    32   ar
    42    29    24   ar
    43    41    36    1
    44    18    22    1
    45    21    23    1
