@<TRIPOS>MOLECULE
*****
 27 29 0 0 0
SMALL
GASTEIGER

@<TRIPOS>ATOM
      1 N          65.8848   92.9713   11.6867 N.pl3   1  UNL1       -0.2872
      2 C          61.2154   89.2940   10.8654 C.2     1  UNL1        0.2256
      3 O          60.5995   88.5903   12.0382 O.2     1  UNL1       -0.2749
      4 N          62.3827   90.2133   11.0707 N.am    1  UNL1       -0.2794
      5 C          62.9986   90.9169    9.8979 C.3     1  UNL1        0.0951
      6 C          64.1659   91.8363   10.1032 C.3     1  UNL1        0.0416
      7 C          64.7174   92.0520   11.4813 C.3     1  UNL1        0.0807
      8 C          64.1016   91.3483   12.6542 C.3     1  UNL1        0.0416
      9 C          62.9342   90.4290   12.4489 C.3     1  UNL1        0.0951
     10 C          60.6639   89.0783    9.4873 C.3     1  UNL1        0.0853
     11 C          61.9414   87.3848    9.5046 C.3     1  UNL1        0.0005
     12 C          60.5975   87.6936    8.9143 C.3     1  UNL1        0.0086
     13 C          59.2536   88.0025    8.3239 C.3     1  UNL1        0.0005
     14 C          60.5310   86.3090    8.3412 C.3     1  UNL1        0.0005
     15 C          66.7322   92.8440   12.9177 C.ar    1  UNL1        0.0516
     16 C          67.8569   91.8522   12.9548 C.ar    1  UNL1        0.0157
     17 C          68.7044   91.7249   14.1859 C.ar    1  UNL1        0.0127
     18 C          68.4272   92.5894   15.3799 C.ar    1  UNL1        0.0578
     19 CL         69.2747   92.4621   16.6110 Cl      1  UNL1       -0.0822
     20 C          67.3025   93.5812   15.3429 C.ar    1  UNL1        0.0127
     21 C          66.4550   93.7085   14.1118 C.ar    1  UNL1        0.0157
     22 C          66.2046   94.0179   10.6609 C.ar    1  UNL1        0.0710
     23 C          67.1892   93.7215    9.5687 C.ar    1  UNL1        0.0180
     24 C          67.5090   94.7682    8.5429 C.ar    1  UNL1        0.0220
     25 C          66.8444   96.1112    8.6093 C.ar    1  UNL1        0.0990
     26 N          65.8599   96.4076    9.7015 N.ar    1  UNL1       -0.2410
     27 C          65.5400   95.3610   10.7273 C.ar    1  UNL1        0.1136
@<TRIPOS>BOND
     1    11    12    1
     2    12    13    1
     3    12    14    1
     4    12    10    1
     5    10     2    1
     6     2     3    2
     7     2     4   am
     8     4     5    1
     9     5     6    1
    10     6     7    1
    11     7     1    1
    12     1    15    1
    13    15    16   ar
    14    16    17   ar
    15    17    18   ar
    16    18    19    1
    17    18    20   ar
    18    20    21   ar
    19     1    22    1
    20    22    23   ar
    21    23    24   ar
    22    24    25   ar
    23    25    26   ar
    24    26    27   ar
    25     7     8    1
    26     8     9    1
    27     9     4    1
    28    21    15   ar
    29    27    22   ar
@<TRIPOS>MOLECULE
*****
 27 29 0 0 0
SMALL
GASTEIGER

@<TRIPOS>ATOM
      1 N          62.2219   86.4275   11.1717 N.pl3   1  UNL1       -0.2872
      2 C          64.7258   91.2812   13.6561 C.2     1  UNL1        0.2256
      3 O          64.6403   92.6079   12.9616 O.2     1  UNL1       -0.2749
      4 N          64.0998   90.0677   13.0350 N.am    1  UNL1       -0.2794
      5 C          64.1853   88.7410   13.7296 C.3     1  UNL1        0.0951
      6 C          63.5593   87.5276   13.1085 C.3     1  UNL1        0.0416
      7 C          62.8479   87.6409   11.7928 C.3     1  UNL1        0.0807
      8 C          62.7624   88.9676   11.0983 C.3     1  UNL1        0.0416
      9 C          63.3884   90.1810   11.7194 C.3     1  UNL1        0.0951
     10 C          65.4372   91.1679   14.9718 C.3     1  UNL1        0.0853
     11 C          67.3602   91.6252   14.2017 C.3     1  UNL1        0.0005
     12 C          66.5169   92.1466   15.3273 C.3     1  UNL1        0.0086
     13 C          65.6736   92.6680   16.4529 C.3     1  UNL1        0.0005
     14 C          67.5966   93.1253   15.6828 C.3     1  UNL1        0.0005
     15 C          62.5721   85.0600   11.6790 C.ar    1  UNL1        0.0516
     16 C          63.2517   84.0755   10.7740 C.ar    1  UNL1        0.0157
     17 C          63.6019   82.7081   11.2813 C.ar    1  UNL1        0.0127
     18 C          63.2725   82.3250   12.6937 C.ar    1  UNL1        0.0578
     19 CL         63.6227   80.9575   13.2010 Cl      1  UNL1       -0.0822
     20 C          62.5929   83.3094   13.5987 C.ar    1  UNL1        0.0127
     21 C          62.2427   84.6770   13.0914 C.ar    1  UNL1        0.0157
     22 C          61.2458   86.5815   10.0433 C.ar    1  UNL1        0.0710
     23 C          61.4704   85.8512    8.7524 C.ar    1  UNL1        0.0180
     24 C          60.4942   86.0053    7.6239 C.ar    1  UNL1        0.0220
     25 C          59.2935   86.8895    7.7863 C.ar    1  UNL1        0.0990
     26 N          59.0690   87.6198    9.0772 N.ar    1  UNL1       -0.2410
     27 C          60.0451   87.4658   10.2056 C.ar    1  UNL1        0.1136
@<TRIPOS>BOND
     1    11    12    1
     2    12    13    1
     3    12    14    1
     4    12    10    1
     5    10     2    1
     6     2     3    2
     7     2     4   am
     8     4     5    1
     9     5     6    1
    10     6     7    1
    11     7     1    1
    12     1    15    1
    13    15    16   ar
    14    16    17   ar
    15    17    18   ar
    16    18    19    1
    17    18    20   ar
    18    20    21   ar
    19     1    22    1
    20    22    23   ar
    21    23    24   ar
    22    24    25   ar
    23    25    26   ar
    24    26    27   ar
    25     7     8    1
    26     8     9    1
    27     9     4    1
    28    21    15   ar
    29    27    22   ar
@<TRIPOS>MOLECULE
*****
 27 29 0 0 0
SMALL
GASTEIGER

@<TRIPOS>ATOM
      1 N          62.6313   88.0038   11.6398 N.pl3   1  UNL1       -0.2872
      2 C          65.4221   93.2999   12.0444 C.2     1  UNL1        0.2256
      3 O          66.0593   93.7150   13.3373 O.2     1  UNL1       -0.2749
      4 N          64.7244   91.9759   11.9433 N.am    1  UNL1       -0.2794
      5 C          64.0872   91.5607   10.6504 C.3     1  UNL1        0.0951
      6 C          63.3895   90.2367   10.5492 C.3     1  UNL1        0.0416
      7 C          63.3290   89.3278   11.7409 C.3     1  UNL1        0.0807
      8 C          63.9663   89.7429   13.0338 C.3     1  UNL1        0.0416
      9 C          64.6640   91.0670   13.1350 C.3     1  UNL1        0.0951
     10 C          65.4825   94.2088   10.8527 C.3     1  UNL1        0.0853
     11 C          66.4019   95.7426    9.7116 C.3     1  UNL1        0.0005
     12 C          66.7526   94.3273   10.0635 C.3     1  UNL1        0.0086
     13 C          67.1034   92.9120   10.4154 C.3     1  UNL1        0.0005
     14 C          68.0227   94.4459    9.2744 C.3     1  UNL1        0.0005
     15 C          63.0204   86.8794   12.5531 C.ar    1  UNL1        0.0516
     16 C          63.8886   87.1484   13.7463 C.ar    1  UNL1        0.0157
     17 C          64.2777   86.0239   14.6596 C.ar    1  UNL1        0.0127
     18 C          63.7985   84.6304   14.3797 C.ar    1  UNL1        0.0578
     19 CL         64.1876   83.5059   15.2931 Cl      1  UNL1       -0.0822
     20 C          62.9303   84.3613   13.1866 C.ar    1  UNL1        0.0127
     21 C          62.5412   85.4858   12.2732 C.ar    1  UNL1        0.0157
     22 C          61.5446   87.8043   10.6253 C.ar    1  UNL1        0.0710
     23 C          61.8268   87.0436    9.3637 C.ar    1  UNL1        0.0180
     24 C          60.7400   86.8440    8.3492 C.ar    1  UNL1        0.0220
     25 C          59.3711   87.4052    8.5964 C.ar    1  UNL1        0.0990
     26 N          59.0889   88.1660    9.8580 N.ar    1  UNL1       -0.2410
     27 C          60.1756   88.3655   10.8724 C.ar    1  UNL1        0.1136
@<TRIPOS>BOND
     1    11    12    1
     2    12    13    1
     3    12    14    1
     4    12    10    1
     5    10     2    1
     6     2     3    2
     7     2     4   am
     8     4     5    1
     9     5     6    1
    10     6     7    1
    11     7     1    1
    12     1    15    1
    13    15    16   ar
    14    16    17   ar
    15    17    18   ar
    16    18    19    1
    17    18    20   ar
    18    20    21   ar
    19     1    22    1
    20    22    23   ar
    21    23    24   ar
    22    24    25   ar
    23    25    26   ar
    24    26    27   ar
    25     7     8    1
    26     8     9    1
    27     9     4    1
    28    21    15   ar
    29    27    22   ar
@<TRIPOS>MOLECULE
*****
 27 29 0 0 0
SMALL
GASTEIGER

@<TRIPOS>ATOM
      1 N          62.8108   88.0222   11.9229 N.pl3   1  UNL1       -0.2872
      2 C          65.6854   93.2100   12.8302 C.2     1  UNL1        0.2256
      3 O          65.8135   94.2020   11.7124 O.2     1  UNL1       -0.2749
      4 N          64.9667   91.9131   12.6034 N.am    1  UNL1       -0.2794
      5 C          64.8386   90.9211   13.7212 C.3     1  UNL1        0.0951
      6 C          64.1200   89.6242   13.4944 C.3     1  UNL1        0.0416
      7 C          63.5294   89.3192   12.1497 C.3     1  UNL1        0.0807
      8 C          63.6575   90.3111   11.0319 C.3     1  UNL1        0.0416
      9 C          64.3762   91.6081   11.2587 C.3     1  UNL1        0.0951
     10 C          66.2759   93.5150   14.1749 C.3     1  UNL1        0.0853
     11 C          67.9301   92.4162   13.4291 C.3     1  UNL1        0.0005
     12 C          67.2918   92.5891   14.7754 C.3     1  UNL1        0.0086
     13 C          66.6535   92.7619   16.1218 C.3     1  UNL1        0.0005
     14 C          68.3077   91.6631   15.3759 C.3     1  UNL1        0.0005
     15 C          63.1739   86.8122   12.7314 C.ar    1  UNL1        0.0516
     16 C          63.9984   86.9613   13.9757 C.ar    1  UNL1        0.0157
     17 C          64.3616   85.7512   14.7842 C.ar    1  UNL1        0.0127
     18 C          63.9003   84.3920   14.3486 C.ar    1  UNL1        0.0578
     19 CL         64.2635   83.1819   15.1572 Cl      1  UNL1       -0.0822
     20 C          63.0759   84.2428   13.1044 C.ar    1  UNL1        0.0127
     21 C          62.7127   85.4529   12.2958 C.ar    1  UNL1        0.0157
     22 C          61.7290   87.9353   10.8875 C.ar    1  UNL1        0.0710
     23 C          62.0025   87.2707    9.5709 C.ar    1  UNL1        0.0180
     24 C          60.9206   87.1839    8.5354 C.ar    1  UNL1        0.0220
     25 C          59.5652   87.7616    8.8166 C.ar    1  UNL1        0.0990
     26 N          59.2917   88.4262   10.1332 N.ar    1  UNL1       -0.2410
     27 C          60.3735   88.5131   11.1686 C.ar    1  UNL1        0.1136
@<TRIPOS>BOND
     1    11    12    1
     2    12    13    1
     3    12    14    1
     4    12    10    1
     5    10     2    1
     6     2     3    2
     7     2     4   am
     8     4     5    1
     9     5     6    1
    10     6     7    1
    11     7     1    1
    12     1    15    1
    13    15    16   ar
    14    16    17   ar
    15    17    18   ar
    16    18    19    1
    17    18    20   ar
    18    20    21   ar
    19     1    22    1
    20    22    23   ar
    21    23    24   ar
    22    24    25   ar
    23    25    26   ar
    24    26    27   ar
    25     7     8    1
    26     8     9    1
    27     9     4    1
    28    21    15   ar
    29    27    22   ar
@<TRIPOS>MOLECULE
*****
 27 29 0 0 0
SMALL
GASTEIGER

@<TRIPOS>ATOM
      1 N          62.5286   85.5832   11.3754 N.pl3   1  UNL1       -0.2872
      2 C          64.4743   90.6231   13.9856 C.2     1  UNL1        0.2256
      3 O          65.1444   90.5630   15.3262 O.2     1  UNL1       -0.2749
      4 N          63.9879   89.3631   13.3330 N.am    1  UNL1       -0.2794
      5 C          63.3178   89.4233   11.9924 C.3     1  UNL1        0.0951
      6 C          62.8314   88.1633   11.3399 C.3     1  UNL1        0.0416
      7 C          63.0150   86.8432   12.0280 C.3     1  UNL1        0.0807
      8 C          63.6851   86.7830   13.3686 C.3     1  UNL1        0.0416
      9 C          64.1715   88.0430   14.0211 C.3     1  UNL1        0.0951
     10 C          64.2907   91.9433   13.2975 C.3     1  UNL1        0.0853
     11 C          64.6755   92.1453   11.2212 C.3     1  UNL1        0.0005
     12 C          65.4045   92.5225   12.4766 C.3     1  UNL1        0.0086
     13 C          66.1335   92.8998   13.7321 C.3     1  UNL1        0.0005
     14 C          66.5183   93.1018   11.6558 C.3     1  UNL1        0.0005
     15 C          62.5962   84.2806   12.1161 C.ar    1  UNL1        0.0516
     16 C          62.3842   84.2501   13.6008 C.ar    1  UNL1        0.0157
     17 C          62.4518   82.9476   14.3415 C.ar    1  UNL1        0.0127
     18 C          62.7315   81.6754   13.5976 C.ar    1  UNL1        0.0578
     19 CL         62.7992   80.3728   14.3384 Cl      1  UNL1       -0.0822
     20 C          62.9436   81.7058   12.1130 C.ar    1  UNL1        0.0127
     21 C          62.8759   83.0084   11.3722 C.ar    1  UNL1        0.0157
     22 C          61.9745   85.6257    9.9822 C.ar    1  UNL1        0.0710
     23 C          62.8023   85.1373    8.8306 C.ar    1  UNL1        0.0180
     24 C          62.2481   85.1799    7.4373 C.ar    1  UNL1        0.0220
     25 C          60.8663   85.7109    7.1957 C.ar    1  UNL1        0.0990
     26 N          60.0385   86.1994    8.3473 N.ar    1  UNL1       -0.2410
     27 C          60.5926   86.1568    9.7405 C.ar    1  UNL1        0.1136
@<TRIPOS>BOND
     1    11    12    1
     2    12    13    1
     3    12    14    1
     4    12    10    1
     5    10     2    1
     6     2     3    2
     7     2     4   am
     8     4     5    1
     9     5     6    1
    10     6     7    1
    11     7     1    1
    12     1    15    1
    13    15    16   ar
    14    16    17   ar
    15    17    18   ar
    16    18    19    1
    17    18    20   ar
    18    20    21   ar
    19     1    22    1
    20    22    23   ar
    21    23    24   ar
    22    24    25   ar
    23    25    26   ar
    24    26    27   ar
    25     7     8    1
    26     8     9    1
    27     9     4    1
    28    21    15   ar
    29    27    22   ar
