@<TRIPOS>MOLECULE
*****
 28 29 0 0 0
SMALL
GASTEIGER

@<TRIPOS>ATOM
      1 C          63.4144   90.6742   12.1295 C.ar    1  UNL1        0.1481
      2 C          62.8243   91.1752   10.8447 C.ar    1  UNL1        0.0376
      3 C          62.1083   90.2277    9.9284 C.ar    1  UNL1        0.0032
      4 C          61.9825   88.7791   10.2969 C.ar    1  UNL1        0.0010
      5 C          62.5726   88.2781   11.5817 C.ar    1  UNL1        0.0133
      6 C          63.2886   89.2256   12.4980 C.ar    1  UNL1        0.1023
      7 C          61.2665   87.8316    9.3807 C.ar    1  UNL1        0.0030
      8 C          59.7740   87.9010    9.2473 C.ar    1  UNL1        0.0207
      9 C          59.0580   86.9535    8.3311 C.ar    1  UNL1        0.0988
     10 N          59.8345   85.9366    7.5481 N.ar    1  UNL1       -0.2399
     11 C          61.3269   85.8672    7.6814 C.ar    1  UNL1        0.1526
     12 C          62.0429   86.8147    8.5977 C.ar    1  UNL1        0.0231
     13 C          62.1034   84.8503    6.8984 C.3     1  UNL1        0.4348
     14 F          62.8798   83.8334    6.1155 F       1  UNL1       -0.1644
     15 F          60.8507   84.4485    6.1780 F       1  UNL1       -0.1644
     16 F          63.3562   85.2521    7.6189 F       1  UNL1       -0.1644
     17 C          63.8787   88.7246   13.7828 C.1     1  UNL1        0.1035
     18 N          64.4687   88.2235   15.0676 N.1     1  UNL1       -0.1907
     19 O          64.1304   91.6217   13.0457 O.3     1  UNL1       -0.4733
     20 C          65.5539   92.0034   12.7665 C.3     1  UNL1        0.2207
     21 C          65.8561   93.2007   11.9150 C.3     1  UNL1        0.0951
     22 N          66.0263   94.5490   12.5500 N.3     1  UNL1       -0.3192
     23 H          66.2256   95.2419   11.8285 H       1  UNL1        0.1189
     24 H          66.8001   94.5170   13.2137 H       1  UNL1        0.1189
     25 C          65.9882   93.0498   10.4284 C.3     1  UNL1        0.0193
     26 C          67.6858   94.5864    9.2008 C.3     1  UNL1        0.0000
     27 C          67.3215   93.2473    9.7701 C.3     1  UNL1        0.0014
     28 C          68.2904   92.1057    9.6810 C.3     1  UNL1        0.0000
@<TRIPOS>BOND
     1    26    27    1
     2    27    28    1
     3    27    25    1
     4    25    21    1
     5    21    22    1
     6    21    20    1
     7    20    19    1
     8    19     1    1
     9     1     2   ar
    10     2     3   ar
    11     3     4   ar
    12     4     7    1
    13     7     8   ar
    14     8     9   ar
    15     9    10   ar
    16    10    11   ar
    17    11    13    1
    18    13    14    1
    19    13    15    1
    20    13    16    1
    21    11    12   ar
    22     4     5   ar
    23     5     6   ar
    24     6    17    1
    25    17    18    3
    26     6     1   ar
    27    12     7   ar
    28    22    23    1
    29    22    24    1
@<TRIPOS>MOLECULE
*****
 28 29 0 0 0
SMALL
GASTEIGER

@<TRIPOS>ATOM
      1 C          63.8720   89.9756   13.3881 C.ar    1  UNL1        0.1481
      2 C          64.4912   89.3084   14.5803 C.ar    1  UNL1        0.0376
      3 C          64.4538   87.8143   14.7072 C.ar    1  UNL1        0.0032
      4 C          63.7973   86.9873   13.6419 C.ar    1  UNL1        0.0010
      5 C          63.1781   87.6544   12.4497 C.ar    1  UNL1        0.0133
      6 C          63.2155   89.1486   12.3228 C.ar    1  UNL1        0.1023
      7 C          63.7600   85.4931   13.7688 C.ar    1  UNL1        0.0030
      8 C          63.8645   84.8524   15.1210 C.ar    1  UNL1        0.0207
      9 C          63.8272   83.3582   15.2479 C.ar    1  UNL1        0.0988
     10 N          63.6853   82.5048   14.0226 N.ar    1  UNL1       -0.2399
     11 C          63.5807   83.1455   12.6704 C.ar    1  UNL1        0.1526
     12 C          63.6181   84.6396   12.5435 C.ar    1  UNL1        0.0231
     13 C          63.4388   82.2920   11.4450 C.3     1  UNL1        0.4348
     14 F          63.2970   81.4386   10.2196 F       1  UNL1       -0.1644
     15 F          64.6936   82.8913   10.8824 F       1  UNL1       -0.1644
     16 F          62.1841   81.6928   12.0076 F       1  UNL1       -0.1644
     17 C          62.5962   89.8157   11.1304 C.1     1  UNL1        0.1035
     18 N          61.9771   90.4828    9.9382 N.1     1  UNL1       -0.1907
     19 O          63.9093   91.4697   13.2612 O.3     1  UNL1       -0.4733
     20 C          64.9201   92.1213   12.3646 C.3     1  UNL1        0.2207
     21 C          66.1538   92.7410   12.9511 C.3     1  UNL1        0.0951
     22 N          66.4945   94.1690   12.6436 N.3     1  UNL1       -0.3192
     23 H          67.3589   94.4228   13.1218 H       1  UNL1        0.1189
     24 H          65.7388   94.7752   12.9626 H       1  UNL1        0.1189
     25 C          67.0468   91.9326   13.8450 C.3     1  UNL1        0.0193
     26 C          65.8548   92.4971   16.0834 C.3     1  UNL1        0.0000
     27 C          67.1149   92.2383   15.3119 C.3     1  UNL1        0.0014
     28 C          68.4431   92.2852   16.0074 C.3     1  UNL1        0.0000
@<TRIPOS>BOND
     1    26    27    1
     2    27    28    1
     3    27    25    1
     4    25    21    1
     5    21    22    1
     6    21    20    1
     7    20    19    1
     8    19     1    1
     9     1     2   ar
    10     2     3   ar
    11     3     4   ar
    12     4     7    1
    13     7     8   ar
    14     8     9   ar
    15     9    10   ar
    16    10    11   ar
    17    11    13    1
    18    13    14    1
    19    13    15    1
    20    13    16    1
    21    11    12   ar
    22     4     5   ar
    23     5     6   ar
    24     6    17    1
    25    17    18    3
    26     6     1   ar
    27    12     7   ar
    28    22    23    1
    29    22    24    1
@<TRIPOS>MOLECULE
*****
 28 29 0 0 0
SMALL
GASTEIGER

@<TRIPOS>ATOM
      1 C          65.0851   92.0961   12.6025 C.ar    1  UNL1        0.1481
      2 C          63.9426   91.2124   12.1982 C.ar    1  UNL1        0.0376
      3 C          63.5699   90.0329   13.0467 C.ar    1  UNL1        0.0032
      4 C          64.3399   89.7371   14.2996 C.ar    1  UNL1        0.0010
      5 C          65.4825   90.6209   14.7039 C.ar    1  UNL1        0.0133
      6 C          65.8551   91.8003   13.8554 C.ar    1  UNL1        0.1023
      7 C          63.9673   88.5577   15.1481 C.ar    1  UNL1        0.0030
      8 C          63.2645   88.7672   16.4565 C.ar    1  UNL1        0.0207
      9 C          62.8919   87.5877   17.3051 C.ar    1  UNL1        0.0988
     10 N          63.2220   86.1987   16.8451 N.ar    1  UNL1       -0.2399
     11 C          63.9248   85.9892   15.5366 C.ar    1  UNL1        0.1526
     12 C          64.2974   87.1687   14.6881 C.ar    1  UNL1        0.0231
     13 C          64.2550   84.6001   15.0766 C.3     1  UNL1        0.4348
     14 F          64.5851   83.2111   14.6166 F       1  UNL1       -0.1644
     15 F          62.9610   84.1029   15.6494 F       1  UNL1       -0.1644
     16 F          65.5490   85.0974   14.5038 F       1  UNL1       -0.1644
     17 C          66.9977   92.6841   14.2597 C.1     1  UNL1        0.1035
     18 N          68.1403   93.5678   14.6641 N.1     1  UNL1       -0.1907
     19 O          65.4578   93.2756   11.7540 O.3     1  UNL1       -0.4733
     20 C          65.9903   93.0639   10.3678 C.3     1  UNL1        0.2207
     21 C          67.4550   93.2349   10.0928 C.3     1  UNL1        0.0951
     22 N          68.4403   92.2404   10.6313 N.3     1  UNL1       -0.3192
     23 H          69.3832   92.5097   10.3505 H       1  UNL1        0.1189
     24 H          68.2264   91.3147   10.2602 H       1  UNL1        0.1189
     25 C          67.9343   94.4006    9.2793 C.3     1  UNL1        0.0193
     26 C          66.8569   96.4954   10.3752 C.3     1  UNL1        0.0000
     27 C          67.0900   95.6355    9.1685 C.3     1  UNL1        0.0014
     28 C          66.4790   96.0104    7.8509 C.3     1  UNL1        0.0000
@<TRIPOS>BOND
     1    26    27    1
     2    27    28    1
     3    27    25    1
     4    25    21    1
     5    21    22    1
     6    21    20    1
     7    20    19    1
     8    19     1    1
     9     1     2   ar
    10     2     3   ar
    11     3     4   ar
    12     4     7    1
    13     7     8   ar
    14     8     9   ar
    15     9    10   ar
    16    10    11   ar
    17    11    13    1
    18    13    14    1
    19    13    15    1
    20    13    16    1
    21    11    12   ar
    22     4     5   ar
    23     5     6   ar
    24     6    17    1
    25    17    18    3
    26     6     1   ar
    27    12     7   ar
    28    22    23    1
    29    22    24    1
@<TRIPOS>MOLECULE
*****
 28 29 0 0 0
SMALL
GASTEIGER

@<TRIPOS>ATOM
      1 C          64.0252   91.4428   12.3384 C.ar    1  UNL1        0.1481
      2 C          63.9289   91.5440   10.8450 C.ar    1  UNL1        0.0376
      3 C          63.1308   90.5341   10.0747 C.ar    1  UNL1        0.0032
      4 C          62.4291   89.4230   10.7979 C.ar    1  UNL1        0.0010
      5 C          62.5255   89.3218   12.2914 C.ar    1  UNL1        0.0133
      6 C          63.3235   90.3317   13.0616 C.ar    1  UNL1        0.1023
      7 C          61.6311   88.4131   10.0277 C.ar    1  UNL1        0.0030
      8 C          60.1322   88.4648   10.0523 C.ar    1  UNL1        0.0207
      9 C          59.3342   87.4550    9.2821 C.ar    1  UNL1        0.0988
     10 N          60.0350   86.3934    8.4872 N.ar    1  UNL1       -0.2399
     11 C          61.5339   86.3417    8.4626 C.ar    1  UNL1        0.1526
     12 C          62.3319   87.3516    9.2328 C.ar    1  UNL1        0.0231
     13 C          62.2348   85.2801    7.6677 C.3     1  UNL1        0.4348
     14 F          62.9356   84.2185    6.8728 F       1  UNL1       -0.1644
     15 F          61.0028   85.0918    6.8330 F       1  UNL1       -0.1644
     16 F          63.4667   85.4684    8.5024 F       1  UNL1       -0.1644
     17 C          63.4198   90.2305   14.5551 C.1     1  UNL1        0.1035
     18 N          63.5161   90.1292   16.0486 N.1     1  UNL1       -0.1907
     19 O          64.8233   92.4527   13.1086 O.3     1  UNL1       -0.4733
     20 C          66.1437   92.9275   12.5786 C.3     1  UNL1        0.2207
     21 C          67.3980   92.1718   12.9038 C.3     1  UNL1        0.0951
     22 N          68.4342   91.9465   11.8430 N.3     1  UNL1       -0.3192
     23 H          69.2141   91.4194   12.2360 H       1  UNL1        0.1189
     24 H          68.7706   92.8461   11.4997 H       1  UNL1        0.1189
     25 C          67.6160   91.6415   14.2900 C.3     1  UNL1        0.0193
     26 C          66.3414   92.6484   16.3177 C.3     1  UNL1        0.0000
     27 C          67.5730   92.5732   15.4648 C.3     1  UNL1        0.0014
     28 C          68.7617   93.4297   15.7867 C.3     1  UNL1        0.0000
@<TRIPOS>BOND
     1    26    27    1
     2    27    28    1
     3    27    25    1
     4    25    21    1
     5    21    22    1
     6    21    20    1
     7    20    19    1
     8    19     1    1
     9     1     2   ar
    10     2     3   ar
    11     3     4   ar
    12     4     7    1
    13     7     8   ar
    14     8     9   ar
    15     9    10   ar
    16    10    11   ar
    17    11    13    1
    18    13    14    1
    19    13    15    1
    20    13    16    1
    21    11    12   ar
    22     4     5   ar
    23     5     6   ar
    24     6    17    1
    25    17    18    3
    26     6     1   ar
    27    12     7   ar
    28    22    23    1
    29    22    24    1
@<TRIPOS>MOLECULE
*****
 28 29 0 0 0
SMALL
GASTEIGER

@<TRIPOS>ATOM
      1 C          63.8447   89.9878   13.3003 C.ar    1  UNL1        0.1481
      2 C          64.4850   89.3583   14.5018 C.ar    1  UNL1        0.0376
      3 C          64.4667   87.8675   14.6669 C.ar    1  UNL1        0.0032
      4 C          63.8080   87.0062   13.6304 C.ar    1  UNL1        0.0010
      5 C          63.1677   87.6357   12.4289 C.ar    1  UNL1        0.0133
      6 C          63.1861   89.1265   12.2638 C.ar    1  UNL1        0.1023
      7 C          63.7896   85.5154   13.7955 C.ar    1  UNL1        0.0030
      8 C          63.9730   84.9091   15.1552 C.ar    1  UNL1        0.0207
      9 C          63.9546   83.4183   15.3202 C.ar    1  UNL1        0.0988
     10 N          63.7529   82.5339   14.1257 N.ar    1  UNL1       -0.2399
     11 C          63.5696   83.1402   12.7660 C.ar    1  UNL1        0.1526
     12 C          63.5879   84.6310   12.6009 C.ar    1  UNL1        0.0231
     13 C          63.3679   82.2558   11.5714 C.3     1  UNL1        0.4348
     14 F          63.1662   81.3714   10.3767 F       1  UNL1       -0.1644
     15 F          64.6657   82.7386   10.9948 F       1  UNL1       -0.1644
     16 F          62.0700   81.7730   12.1479 F       1  UNL1       -0.1644
     17 C          62.5457   89.7559   11.0622 C.1     1  UNL1        0.1035
     18 N          61.9054   90.3853    9.8606 N.1     1  UNL1       -0.1907
     19 O          63.8631   91.4785   13.1352 O.3     1  UNL1       -0.4733
     20 C          65.1435   92.1791   12.7895 C.3     1  UNL1        0.2207
     21 C          65.3498   92.7266   11.4083 C.3     1  UNL1        0.0951
     22 N          64.3904   92.3735   10.3106 N.3     1  UNL1       -0.3192
     23 H          64.6807   92.8295    9.4456 H       1  UNL1        0.1189
     24 H          63.4538   92.6887   10.5633 H       1  UNL1        0.1189
     25 C          66.5154   93.6271   11.1248 C.3     1  UNL1        0.0193
     26 C          67.5442   94.4248    8.8764 C.3     1  UNL1        0.0000
     27 C          67.3885   93.3709    9.9323 C.3     1  UNL1        0.0014
     28 C          68.1058   92.0606    9.7957 C.3     1  UNL1        0.0000
@<TRIPOS>BOND
     1    26    27    1
     2    27    28    1
     3    27    25    1
     4    25    21    1
     5    21    22    1
     6    21    20    1
     7    20    19    1
     8    19     1    1
     9     1     2   ar
    10     2     3   ar
    11     3     4   ar
    12     4     7    1
    13     7     8   ar
    14     8     9   ar
    15     9    10   ar
    16    10    11   ar
    17    11    13    1
    18    13    14    1
    19    13    15    1
    20    13    16    1
    21    11    12   ar
    22     4     5   ar
    23     5     6   ar
    24     6    17    1
    25    17    18    3
    26     6     1   ar
    27    12     7   ar
    28    22    23    1
    29    22    24    1
@<TRIPOS>MOLECULE
*****
 28 29 0 0 0
SMALL
GASTEIGER

@<TRIPOS>ATOM
      1 C          62.0150   88.1370   11.4433 C.ar    1  UNL1        0.1481
      2 C          62.9691   88.0949   12.6000 C.ar    1  UNL1        0.0376
      3 C          63.8683   89.2639   12.8735 C.ar    1  UNL1        0.0032
      4 C          63.8136   90.4750   11.9902 C.ar    1  UNL1        0.0010
      5 C          62.8595   90.5171   10.8335 C.ar    1  UNL1        0.0133
      6 C          61.9603   89.3481   10.5601 C.ar    1  UNL1        0.1023
      7 C          64.7128   91.6440   12.2636 C.ar    1  UNL1        0.0030
      8 C          64.9578   92.6679   11.1951 C.ar    1  UNL1        0.0207
      9 C          65.8570   93.8369   11.4685 C.ar    1  UNL1        0.0988
     10 N          66.5114   93.9820   12.8104 N.ar    1  UNL1       -0.2399
     11 C          66.2665   92.9581   13.8789 C.ar    1  UNL1        0.1526
     12 C          65.3672   91.7891   13.6055 C.ar    1  UNL1        0.0231
     13 C          66.9208   93.1032   15.2209 C.3     1  UNL1        0.4348
     14 F          67.5751   93.2483   16.5628 F       1  UNL1       -0.1644
     15 F          65.6139   92.7987   15.8910 F       1  UNL1       -0.1644
     16 F          68.2278   93.4077   14.5507 F       1  UNL1       -0.1644
     17 C          61.0062   89.3902    9.4033 C.1     1  UNL1        0.1035
     18 N          60.0522   89.4323    8.2466 N.1     1  UNL1       -0.1907
     19 O          61.1158   86.9680   11.1699 O.3     1  UNL1       -0.4733
     20 C          61.6854   85.5817   11.1090 C.3     1  UNL1        0.2207
     21 C          62.5777   85.1869    9.9698 C.3     1  UNL1        0.0951
     22 N          63.5331   84.0414   10.1276 N.3     1  UNL1       -0.3192
     23 H          64.0566   83.9135    9.2616 H       1  UNL1        0.1189
     24 H          63.0119   83.1905   10.3387 H       1  UNL1        0.1189
     25 C          62.5144   85.9376    8.6726 C.3     1  UNL1        0.0193
     26 C          61.9974   84.6497    6.4763 C.3     1  UNL1        0.0000
     27 C          61.5415   85.5189    7.6105 C.3     1  UNL1        0.0014
     28 C          60.1126   85.9696    7.6826 C.3     1  UNL1        0.0000
@<TRIPOS>BOND
     1    26    27    1
     2    27    28    1
     3    27    25    1
     4    25    21    1
     5    21    22    1
     6    21    20    1
     7    20    19    1
     8    19     1    1
     9     1     2   ar
    10     2     3   ar
    11     3     4   ar
    12     4     7    1
    13     7     8   ar
    14     8     9   ar
    15     9    10   ar
    16    10    11   ar
    17    11    13    1
    18    13    14    1
    19    13    15    1
    20    13    16    1
    21    11    12   ar
    22     4     5   ar
    23     5     6   ar
    24     6    17    1
    25    17    18    3
    26     6     1   ar
    27    12     7   ar
    28    22    23    1
    29    22    24    1
@<TRIPOS>MOLECULE
*****
 28 29 0 0 0
SMALL
GASTEIGER

@<TRIPOS>ATOM
      1 C          64.3817   91.6756   12.5443 C.ar    1  UNL1        0.1481
      2 C          64.3462   91.6767   11.0448 C.ar    1  UNL1        0.0376
      3 C          63.5238   90.6577   10.3132 C.ar    1  UNL1        0.0032
      4 C          62.7369   89.6375   11.0812 C.ar    1  UNL1        0.0010
      5 C          62.7724   89.6363   12.5808 C.ar    1  UNL1        0.0133
      6 C          63.5948   90.6553   13.3123 C.ar    1  UNL1        0.1023
      7 C          61.9145   88.6184   10.3497 C.ar    1  UNL1        0.0030
      8 C          62.0340   87.1652   10.7017 C.ar    1  UNL1        0.0207
      9 C          61.2116   86.1462    9.9702 C.ar    1  UNL1        0.0988
     10 N          60.2697   86.5803    8.8866 N.ar    1  UNL1       -0.2399
     11 C          60.1501   88.0334    8.5345 C.ar    1  UNL1        0.1526
     12 C          60.9725   89.0525    9.2661 C.ar    1  UNL1        0.0231
     13 C          59.2081   88.4676    7.4509 C.3     1  UNL1        0.4348
     14 F          58.2661   88.9017    6.3673 F       1  UNL1       -0.1644
     15 F          58.3581   87.2582    7.7053 F       1  UNL1       -0.1644
     16 F          60.0581   89.6770    7.1965 F       1  UNL1       -0.1644
     17 C          63.6303   90.6541   14.8119 C.1     1  UNL1        0.1035
     18 N          63.6658   90.6529   16.3115 N.1     1  UNL1       -0.1907
     19 O          65.2041   92.6946   13.2759 O.3     1  UNL1       -0.4733
     20 C          66.6142   92.9701   12.8447 C.3     1  UNL1        0.2207
     21 C          67.7348   92.1118   13.3521 C.3     1  UNL1        0.0951
     22 N          68.8516   91.7156   12.4324 N.3     1  UNL1       -0.3192
     23 H          69.5210   91.1371   12.9399 H       1  UNL1        0.1189
     24 H          69.3199   92.5529   12.0858 H       1  UNL1        0.1189
     25 C          67.7387   91.6497   14.7792 C.3     1  UNL1        0.0193
     26 C          68.7144   93.5945   16.1990 C.3     1  UNL1        0.0000
     27 C          67.5936   92.6465   15.8906 C.3     1  UNL1        0.0014
     28 C          66.3276   92.6952   16.6938 C.3     1  UNL1        0.0000
@<TRIPOS>BOND
     1    26    27    1
     2    27    28    1
     3    27    25    1
     4    25    21    1
     5    21    22    1
     6    21    20    1
     7    20    19    1
     8    19     1    1
     9     1     2   ar
    10     2     3   ar
    11     3     4   ar
    12     4     7    1
    13     7     8   ar
    14     8     9   ar
    15     9    10   ar
    16    10    11   ar
    17    11    13    1
    18    13    14    1
    19    13    15    1
    20    13    16    1
    21    11    12   ar
    22     4     5   ar
    23     5     6   ar
    24     6    17    1
    25    17    18    3
    26     6     1   ar
    27    12     7   ar
    28    22    23    1
    29    22    24    1
@<TRIPOS>MOLECULE
*****
 28 29 0 0 0
SMALL
GASTEIGER

@<TRIPOS>ATOM
      1 C          63.5766   90.3889   12.4544 C.ar    1  UNL1        0.1481
      2 C          62.9619   89.3307   11.5871 C.ar    1  UNL1        0.0376
      3 C          62.9958   87.8944   12.0184 C.ar    1  UNL1        0.0032
      4 C          63.6443   87.5164   13.3170 C.ar    1  UNL1        0.0010
      5 C          64.2590   88.5746   14.1843 C.ar    1  UNL1        0.0133
      6 C          64.2251   90.0108   13.7530 C.ar    1  UNL1        0.1023
      7 C          63.6781   86.0801   13.7483 C.ar    1  UNL1        0.0030
      8 C          64.0747   85.7274   15.1512 C.ar    1  UNL1        0.0207
      9 C          64.1086   84.2912   15.5825 C.ar    1  UNL1        0.0988
     10 N          63.7458   83.2076   14.6108 N.ar    1  UNL1       -0.2399
     11 C          63.3493   83.5602   13.2079 C.ar    1  UNL1        0.1526
     12 C          63.3154   84.9965   12.7766 C.ar    1  UNL1        0.0231
     13 C          62.9865   82.4766   12.2361 C.3     1  UNL1        0.4348
     14 F          62.6238   81.3930   11.2645 F       1  UNL1       -0.1644
     15 F          63.2900   81.4409   13.2778 F       1  UNL1       -0.1644
     16 F          62.6830   83.5123   11.1944 F       1  UNL1       -0.1644
     17 C          64.8398   91.0691   14.6205 C.1     1  UNL1        0.1035
     18 N          65.4545   92.1272   15.4878 N.1     1  UNL1       -0.1907
     19 O          63.5427   91.8251   12.0231 O.3     1  UNL1       -0.4733
     20 C          64.5857   92.3503   11.0817 C.3     1  UNL1        0.2207
     21 C          65.8533   92.9431   11.6217 C.3     1  UNL1        0.0951
     22 N          65.7963   93.9579   12.7248 N.3     1  UNL1       -0.3192
     23 H          66.7429   94.2511   12.9663 H       1  UNL1        0.1189
     24 H          65.3489   93.5455   13.5434 H       1  UNL1        0.1189
     25 C          67.1781   92.5210   11.0586 C.3     1  UNL1        0.0193
     26 C          68.6355   92.3347    8.9159 C.3     1  UNL1        0.0000
     27 C          67.6597   93.0988    9.7608 C.3     1  UNL1        0.0014
     28 C          67.1656   94.4408    9.3080 C.3     1  UNL1        0.0000
@<TRIPOS>BOND
     1    26    27    1
     2    27    28    1
     3    27    25    1
     4    25    21    1
     5    21    22    1
     6    21    20    1
     7    20    19    1
     8    19     1    1
     9     1     2   ar
    10     2     3   ar
    11     3     4   ar
    12     4     7    1
    13     7     8   ar
    14     8     9   ar
    15     9    10   ar
    16    10    11   ar
    17    11    13    1
    18    13    14    1
    19    13    15    1
    20    13    16    1
    21    11    12   ar
    22     4     5   ar
    23     5     6   ar
    24     6    17    1
    25    17    18    3
    26     6     1   ar
    27    12     7   ar
    28    22    23    1
    29    22    24    1
@<TRIPOS>MOLECULE
*****
 28 29 0 0 0
SMALL
GASTEIGER

@<TRIPOS>ATOM
      1 C          63.0818   87.2407   12.5111 C.ar    1  UNL1        0.1481
      2 C          62.9398   88.6567   12.0368 C.ar    1  UNL1        0.0376
      3 C          63.5428   89.7775   12.8305 C.ar    1  UNL1        0.0032
      4 C          64.2879   89.4825   14.0985 C.ar    1  UNL1        0.0010
      5 C          64.4299   88.0666   14.5727 C.ar    1  UNL1        0.0133
      6 C          63.8269   86.9457   13.7790 C.ar    1  UNL1        0.1023
      7 C          64.8910   90.6034   14.8921 C.ar    1  UNL1        0.0030
      8 C          64.1119   91.2374   16.0062 C.ar    1  UNL1        0.0207
      9 C          64.7150   92.3582   16.7999 C.ar    1  UNL1        0.0988
     10 N          66.0971   92.8451   16.4795 N.ar    1  UNL1       -0.2399
     11 C          66.8761   92.2112   15.3655 C.ar    1  UNL1        0.1526
     12 C          66.2731   91.0903   14.5718 C.ar    1  UNL1        0.0231
     13 C          68.2583   92.6981   15.0451 C.3     1  UNL1        0.4348
     14 F          69.6404   93.1849   14.7247 F       1  UNL1       -0.1644
     15 F          68.3113   91.7718   13.8665 F       1  UNL1       -0.1644
     16 F          68.2053   93.6243   16.2238 F       1  UNL1       -0.1644
     17 C          63.9689   85.5297   14.2534 C.1     1  UNL1        0.1035
     18 N          64.1110   84.1138   14.7276 N.1     1  UNL1       -0.1907
     19 O          62.4787   86.1199   11.7174 O.3     1  UNL1       -0.4733
     20 C          61.1588   86.3122   11.0313 C.3     1  UNL1        0.2207
     21 C          61.1093   86.5309    9.5481 C.3     1  UNL1        0.0951
     22 N          59.8021   86.8340    8.8779 N.3     1  UNL1       -0.3192
     23 H          59.9531   86.9524    7.8761 H       1  UNL1        0.1189
     24 H          59.4117   87.6923    9.2667 H       1  UNL1        0.1189
     25 C          62.3672   86.4464    8.7352 C.3     1  UNL1        0.0193
     26 C          62.5200   84.7445    6.7781 C.3     1  UNL1        0.0000
     27 C          62.8250   85.1232    8.1971 C.3     1  UNL1        0.0014
     28 C          63.5878   84.1787    9.0780 C.3     1  UNL1        0.0000
@<TRIPOS>BOND
     1    26    27    1
     2    27    28    1
     3    27    25    1
     4    25    21    1
     5    21    22    1
     6    21    20    1
     7    20    19    1
     8    19     1    1
     9     1     2   ar
    10     2     3   ar
    11     3     4   ar
    12     4     7    1
    13     7     8   ar
    14     8     9   ar
    15     9    10   ar
    16    10    11   ar
    17    11    13    1
    18    13    14    1
    19    13    15    1
    20    13    16    1
    21    11    12   ar
    22     4     5   ar
    23     5     6   ar
    24     6    17    1
    25    17    18    3
    26     6     1   ar
    27    12     7   ar
    28    22    23    1
    29    22    24    1
