@<TRIPOS>MOLECULE
*****
 38 42 0 0 0
SMALL
GASTEIGER

@<TRIPOS>ATOM
      1 O          62.6783   85.3828   13.8698 O.2     1  UNL1       -0.2744
      2 C          63.1952   84.7939   15.1488 C.2     1  UNL1        0.2320
      3 N          63.6823   85.6935   16.2457 N.am    1  UNL1       -0.2639
      4 H          64.0216   85.3070   17.0852 H       1  UNL1        0.1567
      5 C          63.6527   87.1820   16.0637 C.ar    1  UNL1        0.1655
      6 N          64.3121   87.9481   14.9554 N.ar    1  UNL1       -0.2238
      7 C          64.0254   89.4055   15.1646 C.ar    1  UNL1        0.0914
      8 C          63.1887   89.5402   16.4023 C.ar    1  UNL1        0.0573
      9 S          62.9584   88.1661   16.9579 S.2     1  UNL1       -0.0508
     10 C          64.4932   90.5306   14.2898 C.ar    1  UNL1        0.0425
     11 C          65.4448   91.6197   14.6876 C.ar    1  UNL1        0.1021
     12 N          65.6311   92.5263   13.5073 N.ar    1  UNL1       -0.2269
     13 C          64.7947   91.9976   12.3799 C.ar    1  UNL1        0.1428
     14 N          64.5827   92.4799   10.9755 N.ar    1  UNL1       -0.3373
     15 C          63.6673   91.7287   10.0548 C.ar    1  UNL1        0.0758
     16 C          62.9640   90.4953   10.5384 C.ar    1  UNL1        0.0482
     17 C          63.1760   90.0130   11.9428 C.ar    1  UNL1        0.1445
     18 F          62.4727   88.7795   12.4265 F       1  UNL1       -0.2040
     19 C          64.0914   90.7641   12.8636 C.ar    1  UNL1        0.0644
     20 H          65.0443   93.2894   10.6581 H       1  UNL1        0.1674
     21 C          63.2248   83.3052   15.3309 C.3     1  UNL1        0.1118
     22 C          63.0987   82.4014   14.1405 C.ar    1  UNL1       -0.0101
     23 C          62.2185   81.1886   14.2097 C.ar    1  UNL1       -0.0036
     24 C          62.0924   80.2846   13.0192 C.ar    1  UNL1        0.0028
     25 C          62.8463   80.5935   11.7598 C.ar    1  UNL1        0.0369
     26 C          63.7264   81.8062   11.6907 C.ar    1  UNL1        0.1382
     27 C          63.8526   82.7101   12.8810 C.ar    1  UNL1        0.0331
     28 O          64.4803   82.1150   10.4312 O.3     1  UNL1       -0.4755
     29 C          64.4356   83.4971    9.8501 C.3     1  UNL1        0.2054
     30 C          63.1198   84.1972    9.6802 C.3     1  UNL1        0.0473
     31 C          62.9568   85.2390    8.6134 C.3     1  UNL1        0.0039
     32 C          61.7262   86.0960    8.5840 C.3     1  UNL1        0.0029
     33 C          60.6052   85.7668    7.6432 C.3     1  UNL1        0.0171
     34 C          59.3745   86.6239    7.6137 C.3     1  UNL1        0.0686
     35 N          59.2648   87.8102    8.5251 N.3     1  UNL1       -0.2975
     36 C          60.3858   88.1394    9.4659 C.3     1  UNL1        0.0686
     37 C          61.6164   87.2824    9.4954 C.3     1  UNL1        0.0171
     38 H          58.4328   87.6659    9.0973 H       1  UNL1        0.1232
@<TRIPOS>BOND
     1     1     2    2
     2     2    21    1
     3    21    22    1
     4    22    23   ar
     5    23    24   ar
     6    24    25   ar
     7    25    26   ar
     8    26    28    1
     9    28    29    1
    10    29    30    1
    11    30    31    1
    12    31    32    1
    13    32    33    1
    14    33    34    1
    15    34    35    1
    16    35    36    1
    17    36    37    1
    18    26    27   ar
    19     2     3   am
    20     3     5    1
    21     5     6   ar
    22     6     7   ar
    23     7    10    1
    24    10    11   ar
    25    11    12   ar
    26    12    13   ar
    27    13    14   ar
    28    14    15   ar
    29    15    16   ar
    30    16    17   ar
    31    17    18    1
    32    17    19   ar
    33     7     8   ar
    34     8     9   ar
    35    27    22   ar
    36     9     5   ar
    37    37    32    1
    38    19    10   ar
    39    19    13    1
    40    35    38    1
    41     3     4    1
    42    14    20    1
@<TRIPOS>MOLECULE
*****
 38 42 0 0 0
SMALL
GASTEIGER

@<TRIPOS>ATOM
      1 O          60.1396   89.4836   12.3535 O.2     1  UNL1       -0.2744
      2 C          60.8895   89.3348   11.0630 C.2     1  UNL1        0.2320
      3 N          62.3889   89.2935   11.0674 N.am    1  UNL1       -0.2639
      4 H          62.8811   89.1958   10.2204 H       1  UNL1        0.1567
      5 C          63.1384   89.4010   12.3622 C.ar    1  UNL1        0.1655
      6 N          63.5336   90.6745   13.0492 N.ar    1  UNL1       -0.2238
      7 C          64.2637   90.3145   14.3090 C.ar    1  UNL1        0.0914
      8 C          64.3198   88.8183   14.4007 C.ar    1  UNL1        0.0573
      9 S          63.6243   88.2538   13.1976 S.2     1  UNL1       -0.0508
     10 C          64.8370   91.2808   15.3027 C.ar    1  UNL1        0.0425
     11 C          64.1812   91.7307   16.5745 C.ar    1  UNL1        0.1021
     12 N          65.1058   92.6949   17.2568 N.ar    1  UNL1       -0.2269
     13 C          66.3330   92.8408   16.4067 C.ar    1  UNL1        0.1428
     14 N          67.5803   93.6566   16.5764 N.ar    1  UNL1       -0.3373
     15 C          68.6614   93.5984   15.5383 C.ar    1  UNL1        0.0758
     16 C          68.4953   92.7245   14.3305 C.ar    1  UNL1        0.0482
     17 C          67.2481   91.9087   14.1609 C.ar    1  UNL1        0.1445
     18 F          67.0820   91.0347   12.9532 F       1  UNL1       -0.2040
     19 C          66.1669   91.9669   15.1990 C.ar    1  UNL1        0.0644
     20 H          67.6893   94.2302   17.3690 H       1  UNL1        0.1674
     21 C          60.1401   89.2273    9.7681 C.3     1  UNL1        0.1118
     22 C          60.2417   87.9780    8.9442 C.ar    1  UNL1       -0.0101
     23 C          59.1119   87.5817    8.0403 C.ar    1  UNL1       -0.0036
     24 C          59.2135   86.3323    7.2164 C.ar    1  UNL1        0.0028
     25 C          60.4448   85.4793    7.2963 C.ar    1  UNL1        0.0369
     26 C          61.5744   85.8756    8.2000 C.ar    1  UNL1        0.1382
     27 C          61.4729   87.1249    9.0240 C.ar    1  UNL1        0.0331
     28 O          62.8057   85.0226    8.2799 O.3     1  UNL1       -0.4755
     29 C          63.3928   84.6762    9.6161 C.3     1  UNL1        0.2054
     30 C          63.8235   83.2685    9.9040 C.3     1  UNL1        0.0473
     31 C          64.4879   82.9393   11.2078 C.3     1  UNL1        0.0039
     32 C          63.6615   82.5059   12.3823 C.3     1  UNL1        0.0029
     33 C          63.6555   83.3257   13.6384 C.3     1  UNL1        0.0171
     34 C          62.8291   82.8924   14.8129 C.3     1  UNL1        0.0686
     35 N          62.0087   81.6393   14.7312 N.3     1  UNL1       -0.2975
     36 C          62.0147   80.8195   13.4749 C.3     1  UNL1        0.0686
     37 C          62.8411   81.2528   12.3005 C.3     1  UNL1        0.0171
     38 H          61.0401   81.9099   14.9016 H       1  UNL1        0.1232
@<TRIPOS>BOND
     1     1     2    2
     2     2    21    1
     3    21    22    1
     4    22    23   ar
     5    23    24   ar
     6    24    25   ar
     7    25    26   ar
     8    26    28    1
     9    28    29    1
    10    29    30    1
    11    30    31    1
    12    31    32    1
    13    32    33    1
    14    33    34    1
    15    34    35    1
    16    35    36    1
    17    36    37    1
    18    26    27   ar
    19     2     3   am
    20     3     5    1
    21     5     6   ar
    22     6     7   ar
    23     7    10    1
    24    10    11   ar
    25    11    12   ar
    26    12    13   ar
    27    13    14   ar
    28    14    15   ar
    29    15    16   ar
    30    16    17   ar
    31    17    18    1
    32    17    19   ar
    33     7     8   ar
    34     8     9   ar
    35    27    22   ar
    36     9     5   ar
    37    37    32    1
    38    19    10   ar
    39    19    13    1
    40    35    38    1
    41     3     4    1
    42    14    20    1
@<TRIPOS>MOLECULE
*****
 38 42 0 0 0
SMALL
GASTEIGER

@<TRIPOS>ATOM
      1 O          60.3248   89.0567   12.0937 O.2     1  UNL1       -0.2744
      2 C          61.0276   88.3494   10.9731 C.2     1  UNL1        0.2320
      3 N          62.4140   88.7635   10.5774 N.am    1  UNL1       -0.2639
      4 H          62.8753   88.2992    9.8419 H       1  UNL1        0.1567
      5 C          63.0974   89.8848   11.3021 C.ar    1  UNL1        0.1655
      6 N          63.4922   89.8883   12.7493 N.ar    1  UNL1       -0.2238
      7 C          64.1448   91.2052   13.0486 C.ar    1  UNL1        0.0914
      8 C          64.1535   92.0158   11.7865 C.ar    1  UNL1        0.0573
      9 S          63.5062   91.1997   10.7071 S.2     1  UNL1       -0.0508
     10 C          64.6927   91.6361   14.3769 C.ar    1  UNL1        0.0425
     11 C          63.9207   91.7341   15.6592 C.ar    1  UNL1        0.1021
     12 N          64.8596   92.2032   16.7308 N.ar    1  UNL1       -0.2269
     13 C          66.2119   92.3951   16.1107 C.ar    1  UNL1        0.1428
     14 N          67.5239   92.8437   16.6829 N.ar    1  UNL1       -0.3373
     15 C          68.7327   92.9418   15.8002 C.ar    1  UNL1        0.0758
     16 C          68.6295   92.5914   14.3454 C.ar    1  UNL1        0.0482
     17 C          67.3175   92.1428   13.7732 C.ar    1  UNL1        0.1445
     18 F          67.2144   91.7923   12.3184 F       1  UNL1       -0.2040
     19 C          66.1088   92.0446   14.6559 C.ar    1  UNL1        0.0644
     20 H          67.5916   93.0737   17.6377 H       1  UNL1        0.1674
     21 C          60.3442   87.2280   10.2483 C.3     1  UNL1        0.1118
     22 C          61.1410   86.3013    9.3786 C.ar    1  UNL1       -0.0101
     23 C          60.7940   86.1515    7.9269 C.ar    1  UNL1       -0.0036
     24 C          61.5908   85.2248    7.0572 C.ar    1  UNL1        0.0028
     25 C          62.7345   84.4479    7.6391 C.ar    1  UNL1        0.0369
     26 C          63.0814   84.5978    9.0907 C.ar    1  UNL1        0.1382
     27 C          62.2847   85.5244    9.9605 C.ar    1  UNL1        0.0331
     28 O          64.2250   83.8209    9.6726 O.3     1  UNL1       -0.4755
     29 C          63.9794   82.4803   10.2989 C.3     1  UNL1        0.2054
     30 C          63.9430   82.3454   11.7924 C.3     1  UNL1        0.0473
     31 C          62.7752   82.8821   12.5658 C.3     1  UNL1        0.0039
     32 C          62.9978   83.8777   13.6655 C.3     1  UNL1        0.0029
     33 C          63.9585   85.0123   13.4668 C.3     1  UNL1        0.0171
     34 C          64.1812   86.0080   14.5665 C.3     1  UNL1        0.0686
     35 N          63.4429   85.8689   15.8648 N.3     1  UNL1       -0.2975
     36 C          62.4821   84.7342   16.0635 C.3     1  UNL1        0.0686
     37 C          62.2595   83.7387   14.9638 C.3     1  UNL1        0.0171
     38 H          62.9125   86.7303   15.9956 H       1  UNL1        0.1232
@<TRIPOS>BOND
     1     1     2    2
     2     2    21    1
     3    21    22    1
     4    22    23   ar
     5    23    24   ar
     6    24    25   ar
     7    25    26   ar
     8    26    28    1
     9    28    29    1
    10    29    30    1
    11    30    31    1
    12    31    32    1
    13    32    33    1
    14    33    34    1
    15    34    35    1
    16    35    36    1
    17    36    37    1
    18    26    27   ar
    19     2     3   am
    20     3     5    1
    21     5     6   ar
    22     6     7   ar
    23     7    10    1
    24    10    11   ar
    25    11    12   ar
    26    12    13   ar
    27    13    14   ar
    28    14    15   ar
    29    15    16   ar
    30    16    17   ar
    31    17    18    1
    32    17    19   ar
    33     7     8   ar
    34     8     9   ar
    35    27    22   ar
    36     9     5   ar
    37    37    32    1
    38    19    10   ar
    39    19    13    1
    40    35    38    1
    41     3     4    1
    42    14    20    1
@<TRIPOS>MOLECULE
*****
 38 42 0 0 0
SMALL
GASTEIGER

@<TRIPOS>ATOM
      1 O          62.4391   87.4374    9.2617 O.2     1  UNL1       -0.2744
      2 C          62.0843   87.0760   10.6736 C.2     1  UNL1        0.2320
      3 N          62.2710   88.0783   11.7739 N.am    1  UNL1       -0.2639
      4 H          62.0381   87.8411   12.7005 H       1  UNL1        0.1567
      5 C          62.8124   89.4419   11.4622 C.ar    1  UNL1        0.1655
      6 N          63.9073   90.1472   12.2065 N.ar    1  UNL1       -0.2238
      7 C          64.1257   91.4809   11.5559 C.ar    1  UNL1        0.0914
      8 C          63.1657   91.6001   10.4095 C.ar    1  UNL1        0.0573
      9 S          62.3541   90.3400   10.3516 S.2     1  UNL1       -0.0508
     10 C          65.1280   92.5141   11.9776 C.ar    1  UNL1        0.0425
     11 C          65.6489   93.6354   11.1282 C.ar    1  UNL1        0.1021
     12 N          66.6282   94.4217   11.9484 N.ar    1  UNL1       -0.2269
     13 C          66.7125   93.7864   13.3047 C.ar    1  UNL1        0.1428
     14 N          67.5137   94.1292   14.5255 N.ar    1  UNL1       -0.3373
     15 C          67.3876   93.2930   15.7644 C.ar    1  UNL1        0.0758
     16 C          66.4604   92.1140   15.7824 C.ar    1  UNL1        0.0482
     17 C          65.6592   91.7713   14.5615 C.ar    1  UNL1        0.1445
     18 F          64.7320   90.5923   14.5796 F       1  UNL1       -0.2040
     19 C          65.7852   92.6075   13.3227 C.ar    1  UNL1        0.0644
     20 H          68.1222   94.9030   14.5137 H       1  UNL1        0.1674
     21 C          61.5428   85.7123   10.9853 C.3     1  UNL1        0.1118
     22 C          62.4546   84.5214   10.9680 C.ar    1  UNL1       -0.0101
     23 C          63.4029   84.3194    9.8234 C.ar    1  UNL1       -0.0036
     24 C          64.3147   83.1283    9.8061 C.ar    1  UNL1        0.0028
     25 C          64.2783   82.1395   10.9334 C.ar    1  UNL1        0.0369
     26 C          63.3300   82.3415   12.0780 C.ar    1  UNL1        0.1382
     27 C          62.4182   83.5324   12.0953 C.ar    1  UNL1        0.0331
     28 O          63.2936   81.3526   13.2053 O.3     1  UNL1       -0.4755
     29 C          62.3469   81.5559   14.3509 C.3     1  UNL1        0.2054
     30 C          62.3196   82.8678   15.0777 C.3     1  UNL1        0.0473
     31 C          63.6012   83.5909   15.3684 C.3     1  UNL1        0.0039
     32 C          63.5912   85.0741   15.5922 C.3     1  UNL1        0.0029
     33 C          64.2685   85.9851   14.6117 C.3     1  UNL1        0.0171
     34 C          64.2586   87.4683   14.8354 C.3     1  UNL1        0.0686
     35 N          63.5713   88.0405   16.0397 N.3     1  UNL1       -0.2975
     36 C          62.8940   87.1295   17.0202 C.3     1  UNL1        0.0686
     37 C          62.9039   85.6463   16.7964 C.3     1  UNL1        0.0171
     38 H          62.8587   88.6834   15.6943 H       1  UNL1        0.1232
@<TRIPOS>BOND
     1     1     2    2
     2     2    21    1
     3    21    22    1
     4    22    23   ar
     5    23    24   ar
     6    24    25   ar
     7    25    26   ar
     8    26    28    1
     9    28    29    1
    10    29    30    1
    11    30    31    1
    12    31    32    1
    13    32    33    1
    14    33    34    1
    15    34    35    1
    16    35    36    1
    17    36    37    1
    18    26    27   ar
    19     2     3   am
    20     3     5    1
    21     5     6   ar
    22     6     7   ar
    23     7    10    1
    24    10    11   ar
    25    11    12   ar
    26    12    13   ar
    27    13    14   ar
    28    14    15   ar
    29    15    16   ar
    30    16    17   ar
    31    17    18    1
    32    17    19   ar
    33     7     8   ar
    34     8     9   ar
    35    27    22   ar
    36     9     5   ar
    37    37    32    1
    38    19    10   ar
    39    19    13    1
    40    35    38    1
    41     3     4    1
    42    14    20    1
@<TRIPOS>MOLECULE
*****
 38 42 0 0 0
SMALL
GASTEIGER

@<TRIPOS>ATOM
      1 O          61.1010   89.4337   11.8549 O.2     1  UNL1       -0.2744
      2 C          61.7389   88.0778   11.7869 C.2     1  UNL1        0.2320
      3 N          63.0456   87.8281   12.4799 N.am    1  UNL1       -0.2639
      4 H          63.4642   86.9382   12.4353 H       1  UNL1        0.1567
      5 C          63.7143   88.9343   13.2408 C.ar    1  UNL1        0.1655
      6 N          64.3038   90.1804   12.6493 N.ar    1  UNL1       -0.2238
      7 C          64.8649   91.0049   13.7697 C.ar    1  UNL1        0.0914
      8 C          64.6222   90.2684   15.0537 C.ar    1  UNL1        0.0573
      9 S          63.9111   88.9887   14.7269 S.2     1  UNL1       -0.0508
     10 C          65.5486   92.3327   13.6306 C.ar    1  UNL1        0.0425
     11 C          66.1888   93.1152   14.7387 C.ar    1  UNL1        0.1021
     12 N          66.7480   94.3773   14.1518 N.ar    1  UNL1       -0.2269
     13 C          66.4534   94.3749   12.6811 C.ar    1  UNL1        0.1428
     14 N          66.7643   95.3600   11.5935 N.ar    1  UNL1       -0.3373
     15 C          66.3340   95.0816   10.1839 C.ar    1  UNL1        0.0758
     16 C          65.5927   93.8180    9.8617 C.ar    1  UNL1        0.0482
     17 C          65.2817   92.8328   10.9492 C.ar    1  UNL1        0.1445
     18 F          64.5404   91.5692   10.6271 F       1  UNL1       -0.2040
     19 C          65.7121   93.1113   12.3589 C.ar    1  UNL1        0.0644
     20 H          67.2508   96.1894   11.8050 H       1  UNL1        0.1674
     21 C          61.0701   86.9715   11.0260 C.3     1  UNL1        0.1118
     22 C          61.8957   85.9933   10.2441 C.ar    1  UNL1       -0.0101
     23 C          62.0780   86.1781    8.7667 C.ar    1  UNL1       -0.0036
     24 C          62.9036   85.1998    7.9847 C.ar    1  UNL1        0.0028
     25 C          63.5469   84.0368    8.6801 C.ar    1  UNL1        0.0369
     26 C          63.3646   83.8521   10.1575 C.ar    1  UNL1        0.1382
     27 C          62.5390   84.8302   10.9395 C.ar    1  UNL1        0.0331
     28 O          64.0079   82.6891   10.8529 O.3     1  UNL1       -0.4755
     29 C          63.1798   81.5055   11.2573 C.3     1  UNL1        0.2054
     30 C          63.0096   81.1702   12.7095 C.3     1  UNL1        0.0473
     31 C          62.2423   82.0944   13.6077 C.3     1  UNL1        0.0039
     32 C          62.9513   83.2080   14.3199 C.3     1  UNL1        0.0029
     33 C          64.3512   83.5776   13.9279 C.3     1  UNL1        0.0171
     34 C          65.0603   84.6912   14.6401 C.3     1  UNL1        0.0686
     35 N          64.3695   85.4351   15.7443 N.3     1  UNL1       -0.2975
     36 C          62.9696   85.0654   16.1364 C.3     1  UNL1        0.0686
     37 C          62.2605   83.9519   15.4242 C.3     1  UNL1        0.0171
     38 H          64.3488   86.4172   15.4697 H       1  UNL1        0.1232
@<TRIPOS>BOND
     1     1     2    2
     2     2    21    1
     3    21    22    1
     4    22    23   ar
     5    23    24   ar
     6    24    25   ar
     7    25    26   ar
     8    26    28    1
     9    28    29    1
    10    29    30    1
    11    30    31    1
    12    31    32    1
    13    32    33    1
    14    33    34    1
    15    34    35    1
    16    35    36    1
    17    36    37    1
    18    26    27   ar
    19     2     3   am
    20     3     5    1
    21     5     6   ar
    22     6     7   ar
    23     7    10    1
    24    10    11   ar
    25    11    12   ar
    26    12    13   ar
    27    13    14   ar
    28    14    15   ar
    29    15    16   ar
    30    16    17   ar
    31    17    18    1
    32    17    19   ar
    33     7     8   ar
    34     8     9   ar
    35    27    22   ar
    36     9     5   ar
    37    37    32    1
    38    19    10   ar
    39    19    13    1
    40    35    38    1
    41     3     4    1
    42    14    20    1
@<TRIPOS>MOLECULE
*****
 38 42 0 0 0
SMALL
GASTEIGER

@<TRIPOS>ATOM
      1 O          63.5917   90.6420   14.2000 O.2     1  UNL1       -0.2744
      2 C          63.8604   90.6311   15.6757 C.2     1  UNL1        0.2320
      3 N          64.9469   91.4934   16.2466 N.am    1  UNL1       -0.2639
      4 H          65.1233   91.4862   17.2151 H       1  UNL1        0.1567
      5 C          65.7647   92.3665   15.3418 C.ar    1  UNL1        0.1655
      6 N          65.4040   92.7693   13.9426 N.ar    1  UNL1       -0.2238
      7 C          66.5031   93.6419   13.4134 C.ar    1  UNL1        0.0914
      8 C          67.5433   93.7787   14.4854 C.ar    1  UNL1        0.0573
      9 S          67.0870   92.9904   15.6773 S.2     1  UNL1       -0.0508
     10 C          66.5534   94.2681   12.0512 C.ar    1  UNL1        0.0425
     11 C          65.9278   95.5732   11.6571 C.ar    1  UNL1        0.1021
     12 N          66.2258   95.8106   10.2063 N.ar    1  UNL1       -0.2269
     13 C          67.0357   94.6523    9.7038 C.ar    1  UNL1        0.1428
     14 N          67.6149   94.3426    8.3553 N.ar    1  UNL1       -0.3373
     15 C          68.3965   93.0794    8.1470 C.ar    1  UNL1        0.0758
     16 C          68.5989   92.1260    9.2872 C.ar    1  UNL1        0.0482
     17 C          68.0197   92.4358   10.6357 C.ar    1  UNL1        0.1445
     18 F          68.2222   91.4824   11.7759 F       1  UNL1       -0.2040
     19 C          67.2381   93.6989   10.8440 C.ar    1  UNL1        0.0644
     20 H          67.4820   94.9683    7.6069 H       1  UNL1        0.1674
     21 C          63.0426   89.7579   16.5806 C.3     1  UNL1        0.1118
     22 C          63.1823   88.2661   16.5105 C.ar    1  UNL1       -0.0101
     23 C          62.6185   87.4079   17.6040 C.ar    1  UNL1       -0.0036
     24 C          62.7582   85.9159   17.5340 C.ar    1  UNL1        0.0028
     25 C          63.4616   85.2823   16.3704 C.ar    1  UNL1        0.0369
     26 C          64.0253   86.1406   15.2770 C.ar    1  UNL1        0.1382
     27 C          63.8857   87.6324   15.3470 C.ar    1  UNL1        0.0331
     28 O          64.7287   85.5070   14.1134 O.3     1  UNL1       -0.4755
     29 C          64.7951   84.0127   14.0003 C.3     1  UNL1        0.2054
     30 C          63.8945   83.2923   13.0411 C.3     1  UNL1        0.0473
     31 C          64.0624   83.4883   11.5635 C.3     1  UNL1        0.0039
     32 C          63.1916   84.4673   10.8331 C.3     1  UNL1        0.0029
     33 C          63.3297   84.6317    9.3486 C.3     1  UNL1        0.0171
     34 C          62.4589   85.6107    8.6182 C.3     1  UNL1        0.0686
     35 N          61.4501   86.4251    9.3723 N.3     1  UNL1       -0.2975
     36 C          61.3119   86.2607   10.8570 C.3     1  UNL1        0.0686
     37 C          62.1827   85.2817   11.5873 C.3     1  UNL1        0.0171
     38 H          60.5384   86.2138    8.9666 H       1  UNL1        0.1232
@<TRIPOS>BOND
     1     1     2    2
     2     2    21    1
     3    21    22    1
     4    22    23   ar
     5    23    24   ar
     6    24    25   ar
     7    25    26   ar
     8    26    28    1
     9    28    29    1
    10    29    30    1
    11    30    31    1
    12    31    32    1
    13    32    33    1
    14    33    34    1
    15    34    35    1
    16    35    36    1
    17    36    37    1
    18    26    27   ar
    19     2     3   am
    20     3     5    1
    21     5     6   ar
    22     6     7   ar
    23     7    10    1
    24    10    11   ar
    25    11    12   ar
    26    12    13   ar
    27    13    14   ar
    28    14    15   ar
    29    15    16   ar
    30    16    17   ar
    31    17    18    1
    32    17    19   ar
    33     7     8   ar
    34     8     9   ar
    35    27    22   ar
    36     9     5   ar
    37    37    32    1
    38    19    10   ar
    39    19    13    1
    40    35    38    1
    41     3     4    1
    42    14    20    1
@<TRIPOS>MOLECULE
*****
 38 42 0 0 0
SMALL
GASTEIGER

@<TRIPOS>ATOM
      1 O          62.4127   87.4498    9.0384 O.2     1  UNL1       -0.2744
      2 C          62.0656   86.5409   10.1802 C.2     1  UNL1        0.2320
      3 N          61.9924   87.0848   11.5761 N.am    1  UNL1       -0.2639
      4 H          61.7646   86.4884   12.3255 H       1  UNL1        0.1567
      5 C          62.2662   88.5375   11.8304 C.ar    1  UNL1        0.1655
      6 N          63.5513   89.1157   12.3443 N.ar    1  UNL1       -0.2238
      7 C          63.3825   90.6026   12.4470 C.ar    1  UNL1        0.0914
      8 C          61.9929   90.9434   11.9964 C.ar    1  UNL1        0.0573
      9 S          61.3030   89.6671   11.6154 S.2     1  UNL1       -0.0508
     10 C          64.4208   91.5775   12.9175 C.ar    1  UNL1        0.0425
     11 C          64.9239   91.7197   14.3234 C.ar    1  UNL1        0.1021
     12 N          65.9523   92.8115   14.3395 N.ar    1  UNL1       -0.2269
     13 C          66.0847   93.3442   12.9435 C.ar    1  UNL1        0.1428
     14 N          66.9449   94.4251   12.3591 N.ar    1  UNL1       -0.3373
     15 C          66.8585   94.7434   10.8958 C.ar    1  UNL1        0.0758
     16 C          65.9120   93.9808   10.0170 C.ar    1  UNL1        0.0482
     17 C          65.0518   92.8998   10.6014 C.ar    1  UNL1        0.1445
     18 F          64.1052   92.1372    9.7225 F       1  UNL1       -0.2040
     19 C          65.1382   92.5815   12.0647 C.ar    1  UNL1        0.0644
     20 H          67.5662   94.9257   12.9359 H       1  UNL1        0.1674
     21 C          61.7918   85.0882    9.9259 C.3     1  UNL1        0.1118
     22 C          62.6716   84.0404   10.5405 C.ar    1  UNL1       -0.0101
     23 C          63.8827   83.5510    9.8029 C.ar    1  UNL1       -0.0036
     24 C          64.7626   82.5031   10.4175 C.ar    1  UNL1        0.0028
     25 C          64.4315   81.9446   11.7697 C.ar    1  UNL1        0.0369
     26 C          63.2205   82.4340   12.5073 C.ar    1  UNL1        0.1382
     27 C          62.3406   83.4818   11.8928 C.ar    1  UNL1        0.0331
     28 O          62.8894   81.8755   13.8595 O.3     1  UNL1       -0.4755
     29 C          63.0047   82.7428   15.0779 C.3     1  UNL1        0.2054
     30 C          64.2556   83.5345   15.3195 C.3     1  UNL1        0.0473
     31 C          64.4102   84.8968   14.7111 C.3     1  UNL1        0.0039
     32 C          63.9571   86.1112   15.4661 C.3     1  UNL1        0.0029
     33 C          63.1852   85.9558   16.7428 C.3     1  UNL1        0.0171
     34 C          62.7321   87.1701   17.4979 C.3     1  UNL1        0.0686
     35 N          63.0509   88.5398   16.9762 N.3     1  UNL1       -0.2975
     36 C          63.8228   88.6952   15.6994 C.3     1  UNL1        0.0686
     37 C          64.2759   87.4809   14.9444 C.3     1  UNL1        0.0171
     38 H          63.5858   89.0147   17.7034 H       1  UNL1        0.1232
@<TRIPOS>BOND
     1     1     2    2
     2     2    21    1
     3    21    22    1
     4    22    23   ar
     5    23    24   ar
     6    24    25   ar
     7    25    26   ar
     8    26    28    1
     9    28    29    1
    10    29    30    1
    11    30    31    1
    12    31    32    1
    13    32    33    1
    14    33    34    1
    15    34    35    1
    16    35    36    1
    17    36    37    1
    18    26    27   ar
    19     2     3   am
    20     3     5    1
    21     5     6   ar
    22     6     7   ar
    23     7    10    1
    24    10    11   ar
    25    11    12   ar
    26    12    13   ar
    27    13    14   ar
    28    14    15   ar
    29    15    16   ar
    30    16    17   ar
    31    17    18    1
    32    17    19   ar
    33     7     8   ar
    34     8     9   ar
    35    27    22   ar
    36     9     5   ar
    37    37    32    1
    38    19    10   ar
    39    19    13    1
    40    35    38    1
    41     3     4    1
    42    14    20    1
@<TRIPOS>MOLECULE
*****
 38 42 0 0 0
SMALL
GASTEIGER

@<TRIPOS>ATOM
      1 O          57.8707   90.8806    5.3245 O.2     1  UNL1       -0.2744
      2 C          59.0063   90.1391    5.9653 C.2     1  UNL1        0.2320
      3 N          60.4166   90.4050    5.5292 N.am    1  UNL1       -0.2639
      4 H          61.1620   89.9183    5.9498 H       1  UNL1        0.1567
      5 C          60.6914   91.4123    4.4524 C.ar    1  UNL1        0.1655
      6 N          61.9896   91.5909    3.7225 N.ar    1  UNL1       -0.2238
      7 C          61.8169   92.7069    2.7353 C.ar    1  UNL1        0.0914
      8 C          60.4118   93.2182    2.8551 C.ar    1  UNL1        0.0573
      9 S          59.7162   92.4182    3.9163 S.2     1  UNL1       -0.0508
     10 C          62.8651   93.2214    1.7937 C.ar    1  UNL1        0.0425
     11 C          64.2229   93.7295    2.1784 C.ar    1  UNL1        0.1021
     12 N          64.9364   94.1402    0.9245 N.ar    1  UNL1       -0.2269
     13 C          64.0195   93.8859   -0.2351 C.ar    1  UNL1        0.1428
     14 N          64.1850   94.0980   -1.7107 N.ar    1  UNL1       -0.3373
     15 C          63.0702   93.7423   -2.6492 C.ar    1  UNL1        0.0758
     16 C          61.7900   93.1745   -2.1119 C.ar    1  UNL1        0.0482
     17 C          61.6246   92.9623   -0.6363 C.ar    1  UNL1        0.1445
     18 F          60.3443   92.3944   -0.0991 F       1  UNL1       -0.2040
     19 C          62.7393   93.3180    0.3021 C.ar    1  UNL1        0.0644
     20 H          65.0252   94.4707   -2.0633 H       1  UNL1        0.1674
     21 C          58.7315   89.1317    7.0422 C.3     1  UNL1        0.1118
     22 C          59.8246   88.7253    7.9856 C.ar    1  UNL1       -0.0101
     23 C          60.3837   89.7204    8.9589 C.ar    1  UNL1       -0.0036
     24 C          61.4768   89.3140    9.9024 C.ar    1  UNL1        0.0028
     25 C          62.0107   87.9125    9.8725 C.ar    1  UNL1        0.0369
     26 C          61.4516   86.9175    8.8992 C.ar    1  UNL1        0.1382
     27 C          60.3586   87.3238    7.9558 C.ar    1  UNL1        0.0331
     28 O          61.9856   85.5161    8.8693 O.3     1  UNL1       -0.4755
     29 C          62.8166   85.0056   10.0089 C.3     1  UNL1        0.2054
     30 C          63.6291   83.7555    9.8439 C.3     1  UNL1        0.0473
     31 C          64.3883   83.1951   11.0098 C.3     1  UNL1        0.0039
     32 C          63.6554   82.7710   12.2479 C.3     1  UNL1        0.0029
     33 C          62.7598   81.5682   12.2144 C.3     1  UNL1        0.0171
     34 C          62.0268   81.1440   13.4525 C.3     1  UNL1        0.0686
     35 N          62.1896   81.9226   14.7242 N.3     1  UNL1       -0.2975
     36 C          63.0852   83.1255   14.7578 C.3     1  UNL1        0.0686
     37 C          63.8181   83.5496   13.5196 C.3     1  UNL1        0.0171
     38 H          62.5444   81.2717   15.4247 H       1  UNL1        0.1232
@<TRIPOS>BOND
     1     1     2    2
     2     2    21    1
     3    21    22    1
     4    22    23   ar
     5    23    24   ar
     6    24    25   ar
     7    25    26   ar
     8    26    28    1
     9    28    29    1
    10    29    30    1
    11    30    31    1
    12    31    32    1
    13    32    33    1
    14    33    34    1
    15    34    35    1
    16    35    36    1
    17    36    37    1
    18    26    27   ar
    19     2     3   am
    20     3     5    1
    21     5     6   ar
    22     6     7   ar
    23     7    10    1
    24    10    11   ar
    25    11    12   ar
    26    12    13   ar
    27    13    14   ar
    28    14    15   ar
    29    15    16   ar
    30    16    17   ar
    31    17    18    1
    32    17    19   ar
    33     7     8   ar
    34     8     9   ar
    35    27    22   ar
    36     9     5   ar
    37    37    32    1
    38    19    10   ar
    39    19    13    1
    40    35    38    1
    41     3     4    1
    42    14    20    1
@<TRIPOS>MOLECULE
*****
 38 42 0 0 0
SMALL
GASTEIGER

@<TRIPOS>ATOM
      1 O          63.2834   90.3999   10.4204 O.2     1  UNL1       -0.2744
      2 C          62.8942   89.6581   11.6647 C.2     1  UNL1        0.2320
      3 N          63.5200   90.0185   12.9794 N.am    1  UNL1       -0.2639
      4 H          63.2646   89.5316   13.7961 H       1  UNL1        0.1567
      5 C          64.5350   91.1206   13.0498 C.ar    1  UNL1        0.1655
      6 N          64.5670   92.3464   12.1858 N.ar    1  UNL1       -0.2238
      7 C          65.7479   93.1739   12.5986 C.ar    1  UNL1        0.0914
      8 C          66.4459   92.4596   13.7178 C.ar    1  UNL1        0.0573
      9 S          65.6963   91.1907   13.9966 S.2     1  UNL1       -0.0508
     10 C          66.1588   94.4854   11.9977 C.ar    1  UNL1        0.0425
     11 C          66.0898   95.8240   12.6712 C.ar    1  UNL1        0.1021
     12 N          66.5992   96.8544   11.7075 N.ar    1  UNL1       -0.2269
     13 C          66.9830   96.1528   10.4385 C.ar    1  UNL1        0.1428
     14 N          67.5451   96.6580    9.1428 N.ar    1  UNL1       -0.3373
     15 C          67.8351   95.6990    8.0265 C.ar    1  UNL1        0.0758
     16 C          67.5629   94.2348    8.2059 C.ar    1  UNL1        0.0482
     17 C          67.0008   93.7297    9.5015 C.ar    1  UNL1        0.1445
     18 F          66.7286   92.2655    9.6808 F       1  UNL1       -0.2040
     19 C          66.7108   94.6887   10.6178 C.ar    1  UNL1        0.0644
     20 H          67.7238   97.6189    9.0251 H       1  UNL1        0.1674
     21 C          61.8792   88.5559   11.5943 C.3     1  UNL1        0.1118
     22 C          62.2120   87.2736   10.8908 C.ar    1  UNL1       -0.0101
     23 C          62.3110   87.2431    9.3943 C.ar    1  UNL1       -0.0036
     24 C          62.6439   85.9608    8.6906 C.ar    1  UNL1        0.0028
     25 C          62.8777   84.7091    9.4835 C.ar    1  UNL1        0.0369
     26 C          62.7787   84.7397   10.9799 C.ar    1  UNL1        0.1382
     27 C          62.4459   86.0218   11.6835 C.ar    1  UNL1        0.0331
     28 O          63.0125   83.4880   11.7727 O.3     1  UNL1       -0.4755
     29 C          64.3535   83.2339   12.3951 C.3     1  UNL1        0.2054
     30 C          64.6915   83.8433   13.7234 C.3     1  UNL1        0.0473
     31 C          63.6155   84.0560   14.7466 C.3     1  UNL1        0.0039
     32 C          63.4837   85.3841   15.4313 C.3     1  UNL1        0.0029
     33 C          64.0905   86.6094   14.8145 C.3     1  UNL1        0.0171
     34 C          63.9587   87.9376   15.4991 C.3     1  UNL1        0.0686
     35 N          63.2201   88.0404   16.8005 N.3     1  UNL1       -0.2975
     36 C          62.6132   86.8151   17.4174 C.3     1  UNL1        0.0686
     37 C          62.7450   85.4870   16.7327 C.3     1  UNL1        0.0171
     38 H          62.4597   88.7047   16.6558 H       1  UNL1        0.1232
@<TRIPOS>BOND
     1     1     2    2
     2     2    21    1
     3    21    22    1
     4    22    23   ar
     5    23    24   ar
     6    24    25   ar
     7    25    26   ar
     8    26    28    1
     9    28    29    1
    10    29    30    1
    11    30    31    1
    12    31    32    1
    13    32    33    1
    14    33    34    1
    15    34    35    1
    16    35    36    1
    17    36    37    1
    18    26    27   ar
    19     2     3   am
    20     3     5    1
    21     5     6   ar
    22     6     7   ar
    23     7    10    1
    24    10    11   ar
    25    11    12   ar
    26    12    13   ar
    27    13    14   ar
    28    14    15   ar
    29    15    16   ar
    30    16    17   ar
    31    17    18    1
    32    17    19   ar
    33     7     8   ar
    34     8     9   ar
    35    27    22   ar
    36     9     5   ar
    37    37    32    1
    38    19    10   ar
    39    19    13    1
    40    35    38    1
    41     3     4    1
    42    14    20    1
