@<TRIPOS>MOLECULE
*****
 41 46 0 0 0
SMALL
GASTEIGER

@<TRIPOS>ATOM
      1 N          63.3457   94.9803   -2.3398 N.3     1  UNL1       -0.2676
      2 C          61.8695   94.9926   -2.6057 C.3     1  UNL1        0.0746
      3 C          60.9217   94.4069   -1.6015 C.3     1  UNL1        0.0449
      4 C          61.4500   93.8088   -0.3313 C.3     1  UNL1        0.1391
      5 C          62.9262   93.7965   -0.0654 C.3     1  UNL1        0.0449
      6 C          63.8740   94.3822   -1.0696 C.3     1  UNL1        0.0746
      7 C          61.8292   93.1794    0.9764 C.2     1  UNL1        0.2529
      8 O          63.2227   93.0253    1.5095 O.2     1  UNL1       -0.2724
      9 N          60.5700   92.7312    1.6575 N.am    1  UNL1       -0.1907
     10 C          59.4127   93.0836    0.7706 C.2     1  UNL1        0.3219
     11 O          57.9656   92.8169    1.0617 O.2     1  UNL1       -0.2512
     12 N          59.9565   93.7496   -0.4585 N.am    1  UNL1       -0.2223
     13 C          60.4834   92.0502    2.9911 C.ar    1  UNL1        0.0622
     14 C          59.2047   92.0940    3.7740 C.ar    1  UNL1        0.0154
     15 C          59.1182   91.4130    5.1077 C.ar    1  UNL1        0.0013
     16 C          60.3102   90.6882    5.6585 C.ar    1  UNL1        0.0001
     17 C          61.5890   90.6443    4.8756 C.ar    1  UNL1        0.0013
     18 C          61.6756   91.3253    3.5419 C.ar    1  UNL1        0.0154
     19 C          60.2236   90.0072    6.9921 C.ar    1  UNL1        0.0000
     20 C          59.3636   88.7894    7.1580 C.ar    1  UNL1        0.0000
     21 C          59.2770   88.1084    8.4917 C.ar    1  UNL1        0.0011
     22 C          60.0505   88.6451    9.6596 C.ar    1  UNL1        0.0140
     23 C          60.9105   89.8628    9.4937 C.ar    1  UNL1        0.0011
     24 C          60.9971   90.5439    8.1599 C.ar    1  UNL1        0.0000
     25 C          59.9639   87.9641   10.9932 C.2     1  UNL1        0.0729
     26 O          60.7450   86.7089   11.2465 O.co2   1  UNL1       -0.5446
     27 O          59.0962   88.5384   12.0737 O.co2   1  UNL1       -0.5446
     28 C          59.1488   94.2657   -1.6122 C.ar    1  UNL1        0.1422
     29 C          58.8232   93.3616   -2.7639 C.ar    1  UNL1        0.0554
     30 C          58.0155   93.8778   -3.9177 C.ar    1  UNL1        0.1036
     31 N          57.5334   95.2983   -3.9197 N.ar    1  UNL1       -0.2223
     32 C          57.8590   96.2024   -2.7680 C.ar    1  UNL1        0.2001
     33 N          58.6667   95.6862   -1.6143 N.ar    1  UNL1       -0.2086
     34 C          64.2936   95.5660   -3.3440 C.3     1  UNL1        0.1183
     35 C          65.8724   96.8349   -5.5570 C.3     1  UNL1        0.0323
     36 C          65.5684   95.3667   -5.5990 C.ar    1  UNL1       -0.0069
     37 C          66.0538   94.5328   -6.7476 C.ar    1  UNL1       -0.0015
     38 C          65.7497   93.0646   -6.7896 C.ar    1  UNL1        0.0203
     39 C          64.9603   92.4301   -5.6832 C.ar    1  UNL1        0.0985
     40 N          64.4749   93.2640   -4.5346 N.ar    1  UNL1       -0.2471
     41 C          64.7790   94.7322   -4.4925 C.ar    1  UNL1        0.0712
@<TRIPOS>UNITY_ATOM_ATTR
26 1
charge -1
@<TRIPOS>BOND
     1    35    36    1
     2    36    37   ar
     3    37    38   ar
     4    38    39   ar
     5    39    40   ar
     6    40    41   ar
     7    41    34    1
     8    34     1    1
     9     1     2    1
    10     2     3    1
    11     3     4    1
    12     4     5    1
    13     5     6    1
    14     4     7    1
    15     7     8    2
    16     7     9   am
    17     9    13    1
    18    13    14   ar
    19    14    15   ar
    20    15    16   ar
    21    16    19    1
    22    19    20   ar
    23    20    21   ar
    24    21    22   ar
    25    22    25    1
    26    25    26   ar
    27    25    27   ar
    28    22    23   ar
    29    23    24   ar
    30    16    17   ar
    31    17    18   ar
    32     9    10   am
    33    10    11    2
    34    10    12   am
    35    12    28    1
    36    28    29   ar
    37    29    30   ar
    38    30    31   ar
    39    31    32   ar
    40    32    33   ar
    41    41    36   ar
    42     6     1    1
    43    18    13   ar
    44    33    28   ar
    45    12     4    1
    46    24    19   ar
