@<TRIPOS>MOLECULE
*****
 34 36 0 0 0
SMALL
GASTEIGER

@<TRIPOS>ATOM
      1 C          62.0373   87.1229    9.5604 C.ar    1  UNL1        0.0161
      2 C          62.9300   88.1222   10.2346 C.ar    1  UNL1       -0.0021
      3 C          62.3706   89.4339   10.6999 C.ar    1  UNL1        0.0138
      4 C          60.9184   89.7462   10.4911 C.ar    1  UNL1        0.1378
      5 C          60.0257   88.7469    9.8170 C.ar    1  UNL1        0.0731
      6 C          60.5852   87.4352    9.3516 C.ar    1  UNL1        0.1380
      7 C          63.2633   90.4333   11.3740 C.3     1  UNL1        0.0548
      8 C          64.0660   91.3969   10.5512 C.3     1  UNL1        0.0120
      9 C          64.9586   92.3963   11.2253 C.3     1  UNL1        0.0591
     10 C          65.0486   92.4319   12.7221 C.3     1  UNL1        0.1420
     11 O          65.9413   93.4313   13.3963 O.3     1  UNL1       -0.3818
     12 C          64.2459   91.4682   13.5449 C.3     1  UNL1        0.1642
     13 O          64.3359   91.5039   15.0418 O.3     1  UNL1       -0.3795
     14 C          63.3532   90.4689   12.8709 C.3     1  UNL1        0.1436
     15 O          62.5505   89.5052   13.6936 O.3     1  UNL1       -0.3816
     16 H          65.8828   93.3200   14.3581 H       1  UNL1        0.2104
     17 H          64.9521   92.2026   15.3121 H       1  UNL1        0.2105
     18 H          62.7234   89.6618   14.6352 H       1  UNL1        0.2105
     19 C          65.7613   93.3600   10.4025 C.3     1  UNL1        0.1396
     20 O          67.1849   93.6560   10.7708 O.3     1  UNL1       -0.3819
     21 H          67.2094   94.1131   11.6259 H       1  UNL1        0.2104
     22 O          60.3589   91.0579   10.9564 O.3     1  UNL1       -0.4716
     23 C          59.0017   91.1109   11.5929 C.3     1  UNL1        0.2525
     24 O          59.6925   86.4359    8.6775 O.3     1  UNL1       -0.4716
     25 C          58.8984   86.8347    7.4691 C.3     1  UNL1        0.2525
     26 C          62.5968   85.8112    9.0951 C.3     1  UNL1        0.0557
     27 C          63.5685   82.5918   12.0853 C.ar    1  UNL1       -0.0222
     28 C          64.1227   82.5148   10.6936 C.ar    1  UNL1       -0.0046
     29 C          63.7988   83.5879    9.6969 C.ar    1  UNL1       -0.0043
     30 C          62.9207   84.7381   10.0919 C.ar    1  UNL1       -0.0177
     31 C          62.3666   84.8151   11.4836 C.ar    1  UNL1       -0.0043
     32 C          62.6905   83.7420   12.4803 C.ar    1  UNL1       -0.0046
     33 C          62.8030   80.6350   13.6133 C.3     1  UNL1        0.0050
     34 C          63.8924   81.5187   13.0821 C.3     1  UNL1        0.0264
@<TRIPOS>BOND
     1    33    34    1
     2    34    27    1
     3    27    28   ar
     4    28    29   ar
     5    29    30   ar
     6    30    26    1
     7    26     1    1
     8     1     2   ar
     9     2     3   ar
    10     7     3    1
    11     7     8    1
    12     8     9    1
    13     9    19    1
    14    19    20    1
    15     9    10    1
    16    10    11    1
    17    10    12    1
    18    12    13    1
    19    12    14    1
    20    14    15    1
    21     3     4   ar
    22     4    22    1
    23    22    23    1
    24     4     5   ar
    25     5     6   ar
    26     6    24    1
    27    24    25    1
    28    30    31   ar
    29    31    32   ar
    30    32    27   ar
    31     6     1   ar
    32    14     7    1
    33    20    21    1
    34    11    16    1
    35    13    17    1
    36    15    18    1
@<TRIPOS>MOLECULE
*****
 34 36 0 0 0
SMALL
GASTEIGER

@<TRIPOS>ATOM
      1 C          62.1049   86.9922    9.4512 C.ar    1  UNL1        0.0161
      2 C          62.8457   87.8493   10.4345 C.ar    1  UNL1       -0.0021
      3 C          62.2651   89.1612   10.8724 C.ar    1  UNL1        0.0138
      4 C          60.9438   89.6160   10.3272 C.ar    1  UNL1        0.1378
      5 C          60.2031   88.7590    9.3439 C.ar    1  UNL1        0.0731
      6 C          60.7837   87.4470    8.9059 C.ar    1  UNL1        0.1380
      7 C          63.0058   90.0183   11.8557 C.3     1  UNL1        0.0548
      8 C          63.0006   89.6634   13.3131 C.3     1  UNL1        0.0120
      9 C          63.7413   90.5204   14.2964 C.3     1  UNL1        0.0591
     10 C          64.4871   91.7323   13.8223 C.3     1  UNL1        0.1420
     11 O          65.2279   92.5894   14.8056 O.3     1  UNL1       -0.3818
     12 C          64.4923   92.0872   12.3649 C.3     1  UNL1        0.1642
     13 O          65.2383   93.2993   11.8908 O.3     1  UNL1       -0.3795
     14 C          63.7517   91.2302   11.3816 C.3     1  UNL1        0.1436
     15 O          63.7569   91.5851    9.9242 O.3     1  UNL1       -0.3816
     16 H          65.6519   93.3257   14.3376 H       1  UNL1        0.2104
     17 H          65.6579   93.7372   12.6477 H       1  UNL1        0.2105
     18 H          64.2813   92.3899    9.7893 H       1  UNL1        0.2105
     19 C          63.7361   90.1655   15.7538 C.3     1  UNL1        0.1396
     20 O          63.4993   91.2297   16.7840 O.3     1  UNL1       -0.3819
     21 H          64.2365   91.8600   16.7731 H       1  UNL1        0.2104
     22 O          60.3633   90.9280   10.7652 O.3     1  UNL1       -0.4716
     23 C          59.0924   90.9573   11.5615 C.3     1  UNL1        0.2525
     24 O          60.0430   86.5900    7.9227 O.3     1  UNL1       -0.4716
     25 C          58.5551   86.7217    7.7846 C.3     1  UNL1        0.2525
     26 C          62.6855   85.6803    9.0133 C.3     1  UNL1        0.0557
     27 C          63.5938   82.4933   12.0577 C.ar    1  UNL1       -0.0222
     28 C          64.2261   82.4344   10.6987 C.ar    1  UNL1       -0.0046
     29 C          63.9233   83.4967    9.6839 C.ar    1  UNL1       -0.0043
     30 C          62.9883   84.6179   10.0281 C.ar    1  UNL1       -0.0177
     31 C          62.3560   84.6769   11.3870 C.ar    1  UNL1       -0.0043
     32 C          62.6588   83.6145   12.4018 C.ar    1  UNL1       -0.0046
     33 C          62.7882   80.5870   13.6283 C.3     1  UNL1        0.0050
     34 C          63.8966   81.4310   13.0724 C.3     1  UNL1        0.0264
@<TRIPOS>BOND
     1    33    34    1
     2    34    27    1
     3    27    28   ar
     4    28    29   ar
     5    29    30   ar
     6    30    26    1
     7    26     1    1
     8     1     2   ar
     9     2     3   ar
    10     7     3    1
    11     7     8    1
    12     8     9    1
    13     9    19    1
    14    19    20    1
    15     9    10    1
    16    10    11    1
    17    10    12    1
    18    12    13    1
    19    12    14    1
    20    14    15    1
    21     3     4   ar
    22     4    22    1
    23    22    23    1
    24     4     5   ar
    25     5     6   ar
    26     6    24    1
    27    24    25    1
    28    30    31   ar
    29    31    32   ar
    30    32    27   ar
    31     6     1   ar
    32    14     7    1
    33    20    21    1
    34    11    16    1
    35    13    17    1
    36    15    18    1
@<TRIPOS>MOLECULE
*****
 34 36 0 0 0
SMALL
GASTEIGER

@<TRIPOS>ATOM
      1 C          63.2361   90.5131   12.8040 C.ar    1  UNL1        0.0161
      2 C          63.9423   91.4662   11.8858 C.ar    1  UNL1       -0.0021
      3 C          65.2735   92.0366   12.2766 C.ar    1  UNL1        0.0138
      4 C          65.8984   91.6540   13.5854 C.ar    1  UNL1        0.1378
      5 C          65.1923   90.7009   14.5035 C.ar    1  UNL1        0.0731
      6 C          63.8610   90.1305   14.1128 C.ar    1  UNL1        0.1380
      7 C          65.9797   92.9897   11.3584 C.3     1  UNL1        0.0548
      8 C          65.3009   94.2549   10.9243 C.3     1  UNL1        0.0120
      9 C          66.0070   95.2080   10.0062 C.3     1  UNL1        0.0591
     10 C          67.3921   94.8959    9.5223 C.3     1  UNL1        0.1420
     11 O          68.0983   95.8490    8.6042 O.3     1  UNL1       -0.3818
     12 C          68.0710   93.6307    9.9565 C.3     1  UNL1        0.1642
     13 O          69.4561   93.3187    9.4725 O.3     1  UNL1       -0.3795
     14 C          67.3648   92.6776   10.8745 C.3     1  UNL1        0.1436
     15 O          68.0436   91.4125   11.3087 O.3     1  UNL1       -0.3816
     16 H          68.9771   95.4992    8.3888 H       1  UNL1        0.2104
     17 H          69.7642   94.0322    8.8922 H       1  UNL1        0.2105
     18 H          68.9261   91.3654   10.9088 H       1  UNL1        0.2105
     19 C          65.3282   96.4731    9.5720 C.3     1  UNL1        0.1396
     20 O          65.1715   96.7771    8.1116 O.3     1  UNL1       -0.3819
     21 H          66.0455   96.9176    7.7150 H       1  UNL1        0.2104
     22 O          67.2296   92.2244   13.9761 O.3     1  UNL1       -0.4716
     23 C          67.2973   93.4208   14.8783 C.3     1  UNL1        0.2525
     24 O          63.1549   89.1774   15.0309 O.3     1  UNL1       -0.4716
     25 C          63.1525   89.4240   16.5105 C.3     1  UNL1        0.2525
     26 C          61.9050   89.9428   12.4133 C.3     1  UNL1        0.0557
     27 C          61.6532   86.8375    9.1661 C.ar    1  UNL1       -0.0222
     28 C          62.4179   86.5475   10.4235 C.ar    1  UNL1       -0.0046
     29 C          62.5018   87.5826   11.5059 C.ar    1  UNL1       -0.0043
     30 C          61.8210   88.9077   11.3309 C.ar    1  UNL1       -0.0177
     31 C          61.0563   89.1977   10.0735 C.ar    1  UNL1       -0.0043
     32 C          60.9724   88.1626    8.9911 C.ar    1  UNL1       -0.0046
     33 C          62.7696   84.9670    7.7502 C.3     1  UNL1        0.0050
     34 C          61.5693   85.8025    8.0837 C.3     1  UNL1        0.0264
@<TRIPOS>BOND
     1    33    34    1
     2    34    27    1
     3    27    28   ar
     4    28    29   ar
     5    29    30   ar
     6    30    26    1
     7    26     1    1
     8     1     2   ar
     9     2     3   ar
    10     7     3    1
    11     7     8    1
    12     8     9    1
    13     9    19    1
    14    19    20    1
    15     9    10    1
    16    10    11    1
    17    10    12    1
    18    12    13    1
    19    12    14    1
    20    14    15    1
    21     3     4   ar
    22     4    22    1
    23    22    23    1
    24     4     5   ar
    25     5     6   ar
    26     6    24    1
    27    24    25    1
    28    30    31   ar
    29    31    32   ar
    30    32    27   ar
    31     6     1   ar
    32    14     7    1
    33    20    21    1
    34    11    16    1
    35    13    17    1
    36    15    18    1
@<TRIPOS>MOLECULE
*****
 34 36 0 0 0
SMALL
GASTEIGER

@<TRIPOS>ATOM
      1 C          63.8526   87.2442   15.3585 C.ar    1  UNL1        0.0161
      2 C          64.5607   88.2484   14.4980 C.ar    1  UNL1       -0.0021
      3 C          64.4345   89.7131   14.7962 C.ar    1  UNL1        0.0138
      4 C          63.6004   90.1735   15.9547 C.ar    1  UNL1        0.1378
      5 C          62.8924   89.1694   16.8151 C.ar    1  UNL1        0.0731
      6 C          63.0185   87.7046   16.5170 C.ar    1  UNL1        0.1380
      7 C          65.1426   90.7173   13.9358 C.3     1  UNL1        0.0548
      8 C          66.5286   91.1663   14.2928 C.3     1  UNL1        0.0120
      9 C          67.2366   92.1705   13.4325 C.3     1  UNL1        0.0591
     10 C          66.5587   92.7257   12.2151 C.3     1  UNL1        0.1420
     11 O          67.2667   93.7300   11.3547 O.3     1  UNL1       -0.3818
     12 C          65.1727   92.2768   11.8581 C.3     1  UNL1        0.1642
     13 O          64.4947   92.8321   10.6406 O.3     1  UNL1       -0.3795
     14 C          64.4646   91.2726   12.7184 C.3     1  UNL1        0.1436
     15 O          63.0787   90.8236   12.3614 O.3     1  UNL1       -0.3816
     16 H          66.6928   93.9838   10.6151 H       1  UNL1        0.2104
     17 H          65.0857   93.4633   10.2011 H       1  UNL1        0.2105
     18 H          62.7905   91.2758   11.5530 H       1  UNL1        0.2105
     19 C          68.6226   92.6194   13.7895 C.3     1  UNL1        0.1396
     20 O          69.8103   91.8356   13.3154 O.3     1  UNL1       -0.3819
     21 H          69.8096   90.9614   13.7358 H       1  UNL1        0.2104
     22 O          63.4743   91.6382   16.2528 O.3     1  UNL1       -0.4716
     23 C          64.5617   92.3469   17.0047 C.3     1  UNL1        0.2525
     24 O          62.3105   86.7005   17.3774 O.3     1  UNL1       -0.4716
     25 C          62.6543   86.5848   18.8328 C.3     1  UNL1        0.2525
     26 C          63.9788   85.7796   15.0603 C.3     1  UNL1        0.0557
     27 C          63.4305   84.2848   10.8514 C.ar    1  UNL1       -0.0222
     28 C          64.3297   83.5467   11.7983 C.ar    1  UNL1       -0.0046
     29 C          64.5124   84.0449   13.2012 C.ar    1  UNL1       -0.0043
     30 C          63.7960   85.2813   13.6573 C.ar    1  UNL1       -0.0177
     31 C          62.8968   86.0194   12.7105 C.ar    1  UNL1       -0.0043
     32 C          62.7141   85.5211   11.3075 C.ar    1  UNL1       -0.0046
     33 C          63.0956   84.7626    8.3197 C.3     1  UNL1        0.0050
     34 C          63.2477   83.7865    9.4484 C.3     1  UNL1        0.0264
@<TRIPOS>BOND
     1    33    34    1
     2    34    27    1
     3    27    28   ar
     4    28    29   ar
     5    29    30   ar
     6    30    26    1
     7    26     1    1
     8     1     2   ar
     9     2     3   ar
    10     7     3    1
    11     7     8    1
    12     8     9    1
    13     9    19    1
    14    19    20    1
    15     9    10    1
    16    10    11    1
    17    10    12    1
    18    12    13    1
    19    12    14    1
    20    14    15    1
    21     3     4   ar
    22     4    22    1
    23    22    23    1
    24     4     5   ar
    25     5     6   ar
    26     6    24    1
    27    24    25    1
    28    30    31   ar
    29    31    32   ar
    30    32    27   ar
    31     6     1   ar
    32    14     7    1
    33    20    21    1
    34    11    16    1
    35    13    17    1
    36    15    18    1
@<TRIPOS>MOLECULE
*****
 34 36 0 0 0
SMALL
GASTEIGER

@<TRIPOS>ATOM
      1 C          62.5846   89.0435   11.6884 C.ar    1  UNL1        0.0161
      2 C          63.4789   89.5866   12.7633 C.ar    1  UNL1       -0.0021
      3 C          64.2471   90.8538   12.5306 C.ar    1  UNL1        0.0138
      4 C          64.1210   91.5779   11.2230 C.ar    1  UNL1        0.1378
      5 C          63.2267   91.0348   10.1482 C.ar    1  UNL1        0.0731
      6 C          62.4585   89.7676   10.3809 C.ar    1  UNL1        0.1380
      7 C          65.1414   91.3969   13.6055 C.3     1  UNL1        0.0548
      8 C          66.6000   91.6122   13.3297 C.3     1  UNL1        0.0120
      9 C          67.4943   92.1553   14.4045 C.3     1  UNL1        0.0591
     10 C          66.9300   92.4831   15.7550 C.3     1  UNL1        0.1420
     11 O          67.8243   93.0262   16.8299 O.3     1  UNL1       -0.3818
     12 C          65.4714   92.2677   16.0308 C.3     1  UNL1        0.1642
     13 O          64.9071   92.5955   17.3815 O.3     1  UNL1       -0.3795
     14 C          64.5771   91.7247   14.9560 C.3     1  UNL1        0.1436
     15 O          63.1184   91.5093   15.2318 O.3     1  UNL1       -0.3816
     16 H          67.3050   93.1828   17.6341 H       1  UNL1        0.2104
     17 H          65.6137   92.9332   17.9539 H       1  UNL1        0.2105
     18 H          62.9202   91.7695   16.1450 H       1  UNL1        0.2105
     19 C          68.9529   92.3706   14.1287 C.3     1  UNL1        0.1396
     20 O          69.6030   91.6934   12.9588 O.3     1  UNL1       -0.3819
     21 H          69.6046   90.7338   13.1007 H       1  UNL1        0.2104
     22 O          64.8892   92.8451   10.9903 O.3     1  UNL1       -0.4716
     23 C          66.1882   92.8078   10.2412 C.3     1  UNL1        0.2525
     24 O          61.5642   89.2246    9.3060 O.3     1  UNL1       -0.4716
     25 C          60.1011   89.5553    9.3095 C.3     1  UNL1        0.2525
     26 C          61.8164   87.7763   11.9212 C.3     1  UNL1        0.0557
     27 C          63.5720   83.8216   10.6849 C.ar    1  UNL1       -0.0222
     28 C          62.9787   84.7343    9.6529 C.ar    1  UNL1       -0.0046
     29 C          62.3935   86.0525   10.0650 C.ar    1  UNL1       -0.0043
     30 C          62.4016   86.4581   11.5091 C.ar    1  UNL1       -0.0177
     31 C          62.9950   85.5455   12.5411 C.ar    1  UNL1       -0.0043
     32 C          63.5801   84.2272   12.1290 C.ar    1  UNL1       -0.0046
     33 C          63.3744   81.2397   10.4735 C.3     1  UNL1        0.0050
     34 C          64.1572   82.5034   10.2728 C.3     1  UNL1        0.0264
@<TRIPOS>BOND
     1    33    34    1
     2    34    27    1
     3    27    28   ar
     4    28    29   ar
     5    29    30   ar
     6    30    26    1
     7    26     1    1
     8     1     2   ar
     9     2     3   ar
    10     7     3    1
    11     7     8    1
    12     8     9    1
    13     9    19    1
    14    19    20    1
    15     9    10    1
    16    10    11    1
    17    10    12    1
    18    12    13    1
    19    12    14    1
    20    14    15    1
    21     3     4   ar
    22     4    22    1
    23    22    23    1
    24     4     5   ar
    25     5     6   ar
    26     6    24    1
    27    24    25    1
    28    30    31   ar
    29    31    32   ar
    30    32    27   ar
    31     6     1   ar
    32    14     7    1
    33    20    21    1
    34    11    16    1
    35    13    17    1
    36    15    18    1
@<TRIPOS>MOLECULE
*****
 34 36 0 0 0
SMALL
GASTEIGER

@<TRIPOS>ATOM
      1 C          61.1953   89.0060   10.0008 C.ar    1  UNL1        0.0161
      2 C          61.8369   87.8492   10.7081 C.ar    1  UNL1       -0.0021
      3 C          61.7603   86.4727   10.1169 C.ar    1  UNL1        0.0138
      4 C          61.0422   86.2530    8.8184 C.ar    1  UNL1        0.1378
      5 C          60.4007   87.4098    8.1111 C.ar    1  UNL1        0.0731
      6 C          60.4772   88.7863    8.7023 C.ar    1  UNL1        0.1380
      7 C          62.4019   85.3159   10.8242 C.3     1  UNL1        0.0548
      8 C          62.1142   85.0715   12.2760 C.3     1  UNL1        0.0120
      9 C          62.7557   83.9148   12.9833 C.3     1  UNL1        0.0591
     10 C          63.6848   83.0024   12.2389 C.3     1  UNL1        0.1420
     11 O          64.3264   81.8455   12.9462 O.3     1  UNL1       -0.3818
     12 C          63.9725   83.2467   10.7871 C.3     1  UNL1        0.1642
     13 O          64.9017   82.3343   10.0427 O.3     1  UNL1       -0.3795
     14 C          63.3310   84.4035   10.0798 C.3     1  UNL1        0.1436
     15 O          63.6186   84.6479    8.6281 O.3     1  UNL1       -0.3816
     16 H          64.8930   81.3610   12.3256 H       1  UNL1        0.2104
     17 H          65.2265   81.6444   10.6422 H       1  UNL1        0.2105
     18 H          64.2335   83.9722    8.3021 H       1  UNL1        0.2105
     19 C          62.4681   83.6704   14.4350 C.3     1  UNL1        0.1396
     20 O          62.4228   82.2679   14.9649 O.3     1  UNL1       -0.3819
     21 H          61.6727   81.7969   14.5693 H       1  UNL1        0.2104
     22 O          60.9657   84.8765    8.2273 O.3     1  UNL1       -0.4716
     23 C          61.0423   84.6935    6.7404 C.3     1  UNL1        0.2525
     24 O          59.8357   89.9430    7.9950 O.3     1  UNL1       -0.4716
     25 C          59.3495   89.7838    6.5849 C.3     1  UNL1        0.2525
     26 C          61.2719   90.3824   10.5920 C.3     1  UNL1        0.0557
     27 C          65.1834   91.9307   12.1896 C.ar    1  UNL1       -0.0222
     28 C          64.8024   92.1869   10.7616 C.ar    1  UNL1       -0.0046
     29 C          63.4985   91.6708   10.2291 C.ar    1  UNL1       -0.0043
     30 C          62.5757   90.8985   11.1245 C.ar    1  UNL1       -0.0177
     31 C          62.9568   90.6423   12.5525 C.ar    1  UNL1       -0.0043
     32 C          64.2606   91.1584   13.0850 C.ar    1  UNL1       -0.0046
     33 C          67.0725   91.8587   13.9717 C.3     1  UNL1        0.0050
     34 C          66.4873   92.4468   12.7221 C.3     1  UNL1        0.0264
@<TRIPOS>BOND
     1    33    34    1
     2    34    27    1
     3    27    28   ar
     4    28    29   ar
     5    29    30   ar
     6    30    26    1
     7    26     1    1
     8     1     2   ar
     9     2     3   ar
    10     7     3    1
    11     7     8    1
    12     8     9    1
    13     9    19    1
    14    19    20    1
    15     9    10    1
    16    10    11    1
    17    10    12    1
    18    12    13    1
    19    12    14    1
    20    14    15    1
    21     3     4   ar
    22     4    22    1
    23    22    23    1
    24     4     5   ar
    25     5     6   ar
    26     6    24    1
    27    24    25    1
    28    30    31   ar
    29    31    32   ar
    30    32    27   ar
    31     6     1   ar
    32    14     7    1
    33    20    21    1
    34    11    16    1
    35    13    17    1
    36    15    18    1
@<TRIPOS>MOLECULE
*****
 34 36 0 0 0
SMALL
GASTEIGER

@<TRIPOS>ATOM
      1 C          63.2934   89.3587   12.8499 C.ar    1  UNL1        0.0161
      2 C          62.6759   88.8068   11.5992 C.ar    1  UNL1       -0.0021
      3 C          62.5509   87.3233   11.4160 C.ar    1  UNL1        0.0138
      4 C          63.0434   86.3916   12.4834 C.ar    1  UNL1        0.1378
      5 C          63.6609   86.9434   13.7340 C.ar    1  UNL1        0.0731
      6 C          63.7859   88.4270   13.9173 C.ar    1  UNL1        0.1380
      7 C          61.9333   86.7714   10.1653 C.3     1  UNL1        0.0548
      8 C          62.7592   85.9492    9.2208 C.3     1  UNL1        0.0120
      9 C          62.1417   85.3973    7.9702 C.3     1  UNL1        0.0591
     10 C          60.6984   85.6677    7.6640 C.3     1  UNL1        0.1420
     11 O          60.0809   85.1158    6.4133 O.3     1  UNL1       -0.3818
     12 C          59.8726   86.4899    8.6085 C.3     1  UNL1        0.1642
     13 O          58.4292   86.7603    8.3022 O.3     1  UNL1       -0.3795
     14 C          60.4901   87.0418    9.8591 C.3     1  UNL1        0.1436
     15 O          59.6643   87.8640   10.8035 O.3     1  UNL1       -0.3816
     16 H          59.1490   85.3814    6.3684 H       1  UNL1        0.2104
     17 H          58.1915   86.3348    7.4635 H       1  UNL1        0.2105
     18 H          58.7608   87.9422   10.4591 H       1  UNL1        0.2105
     19 C          62.9675   84.5751    7.0258 C.3     1  UNL1        0.1396
     20 O          62.5713   84.4659    5.5832 O.3     1  UNL1       -0.3819
     21 H          61.7272   83.9930    5.5146 H       1  UNL1        0.2104
     22 O          62.9184   84.9081   12.3001 O.3     1  UNL1       -0.4716
     23 C          64.0617   84.0083   12.6650 C.3     1  UNL1        0.2525
     24 O          64.4035   88.9788   15.1679 O.3     1  UNL1       -0.4716
     25 C          63.5311   89.3895   16.3170 C.3     1  UNL1        0.2525
     26 C          63.4184   90.8421   13.0330 C.3     1  UNL1        0.0557
     27 C          66.6196   93.1186   10.8375 C.ar    1  UNL1       -0.0222
     28 C          66.8342   92.7109   12.2649 C.ar    1  UNL1       -0.0046
     29 C          65.7672   91.9521   12.9968 C.ar    1  UNL1       -0.0043
     30 C          64.4855   91.6010   12.3012 C.ar    1  UNL1       -0.0177
     31 C          64.2708   92.0087   10.8738 C.ar    1  UNL1       -0.0043
     32 C          65.3378   92.7675   10.1419 C.ar    1  UNL1       -0.0046
     33 C          68.6498   93.1481    9.2166 C.3     1  UNL1        0.0050
     34 C          67.6866   93.8774   10.1056 C.3     1  UNL1        0.0264
@<TRIPOS>BOND
     1    33    34    1
     2    34    27    1
     3    27    28   ar
     4    28    29   ar
     5    29    30   ar
     6    30    26    1
     7    26     1    1
     8     1     2   ar
     9     2     3   ar
    10     7     3    1
    11     7     8    1
    12     8     9    1
    13     9    19    1
    14    19    20    1
    15     9    10    1
    16    10    11    1
    17    10    12    1
    18    12    13    1
    19    12    14    1
    20    14    15    1
    21     3     4   ar
    22     4    22    1
    23    22    23    1
    24     4     5   ar
    25     5     6   ar
    26     6    24    1
    27    24    25    1
    28    30    31   ar
    29    31    32   ar
    30    32    27   ar
    31     6     1   ar
    32    14     7    1
    33    20    21    1
    34    11    16    1
    35    13    17    1
    36    15    18    1
@<TRIPOS>MOLECULE
*****
 34 36 0 0 0
SMALL
GASTEIGER

@<TRIPOS>ATOM
      1 C          63.7208   87.4514   13.5165 C.ar    1  UNL1        0.0161
      2 C          62.9958   86.9281   12.3121 C.ar    1  UNL1       -0.0021
      3 C          62.5115   87.8779   11.2570 C.ar    1  UNL1        0.0138
      4 C          62.7522   89.3509   11.4062 C.ar    1  UNL1        0.1378
      5 C          63.4772   89.8742   12.6105 C.ar    1  UNL1        0.0731
      6 C          63.9616   88.9244   13.6657 C.ar    1  UNL1        0.1380
      7 C          61.7864   87.3546   10.0525 C.3     1  UNL1        0.0548
      8 C          62.4592   86.3723    9.1402 C.3     1  UNL1        0.0120
      9 C          61.7342   85.8491    7.9358 C.3     1  UNL1        0.0591
     10 C          60.3364   86.3081    7.6438 C.3     1  UNL1        0.1420
     11 O          59.6113   85.7849    6.4394 O.3     1  UNL1       -0.3818
     12 C          59.6636   87.2904    8.5562 C.3     1  UNL1        0.1642
     13 O          58.2657   87.7495    8.2641 O.3     1  UNL1       -0.3795
     14 C          60.3886   87.8137    9.7605 C.3     1  UNL1        0.1436
     15 O          59.7157   88.7960   10.6729 O.3     1  UNL1       -0.3816
     16 H          58.7262   86.1794    6.3981 H       1  UNL1        0.2104
     17 H          57.9460   87.3185    7.4560 H       1  UNL1        0.2105
     18 H          58.8235   88.9851   10.3428 H       1  UNL1        0.2105
     19 C          62.4070   84.8668    7.0235 C.3     1  UNL1        0.1396
     20 O          61.6084   84.1439    5.9797 O.3     1  UNL1       -0.3819
     21 H          60.9708   83.5540    6.4114 H       1  UNL1        0.2104
     22 O          62.2678   90.3007   10.3509 O.3     1  UNL1       -0.4716
     23 C          63.1205   91.4647    9.9411 C.3     1  UNL1        0.2525
     24 O          64.6866   89.4477   14.8701 O.3     1  UNL1       -0.4716
     25 C          65.1375   90.8777   14.9114 C.3     1  UNL1        0.2525
     26 C          64.2051   86.5016   14.5717 C.3     1  UNL1        0.0557
     27 C          63.2621   82.1131   14.2529 C.ar    1  UNL1       -0.0222
     28 C          62.4225   82.9993   15.1245 C.ar    1  UNL1       -0.0046
     29 C          62.7368   84.4621   15.2308 C.ar    1  UNL1       -0.0043
     30 C          63.8908   85.0388   14.4654 C.ar    1  UNL1       -0.0177
     31 C          64.7304   84.1526   13.5939 C.ar    1  UNL1       -0.0043
     32 C          64.4161   82.6898   13.4876 C.ar    1  UNL1       -0.0046
     33 C          62.5233   80.0679   12.8312 C.3     1  UNL1        0.0050
     34 C          62.9478   80.6502   14.1467 C.3     1  UNL1        0.0264
@<TRIPOS>BOND
     1    33    34    1
     2    34    27    1
     3    27    28   ar
     4    28    29   ar
     5    29    30   ar
     6    30    26    1
     7    26     1    1
     8     1     2   ar
     9     2     3   ar
    10     7     3    1
    11     7     8    1
    12     8     9    1
    13     9    19    1
    14    19    20    1
    15     9    10    1
    16    10    11    1
    17    10    12    1
    18    12    13    1
    19    12    14    1
    20    14    15    1
    21     3     4   ar
    22     4    22    1
    23    22    23    1
    24     4     5   ar
    25     5     6   ar
    26     6    24    1
    27    24    25    1
    28    30    31   ar
    29    31    32   ar
    30    32    27   ar
    31     6     1   ar
    32    14     7    1
    33    20    21    1
    34    11    16    1
    35    13    17    1
    36    15    18    1
@<TRIPOS>MOLECULE
*****
 34 36 0 0 0
SMALL
GASTEIGER

@<TRIPOS>ATOM
      1 C          62.2917   88.6007   11.5735 C.ar    1  UNL1        0.0161
      2 C          62.6468   87.3236   12.2756 C.ar    1  UNL1       -0.0021
      3 C          62.6972   86.0352   11.5092 C.ar    1  UNL1        0.0138
      4 C          62.3924   86.0239   10.0405 C.ar    1  UNL1        0.1378
      5 C          62.0372   87.3009    9.3383 C.ar    1  UNL1        0.0731
      6 C          61.9869   88.5893   10.1048 C.ar    1  UNL1        0.1380
      7 C          63.0523   84.7581   12.2113 C.3     1  UNL1        0.0548
      8 C          62.7647   83.4385   11.5588 C.3     1  UNL1        0.0120
      9 C          63.1198   82.1614   12.2609 C.3     1  UNL1        0.0591
     10 C          63.7626   82.2040   13.6155 C.3     1  UNL1        0.1420
     11 O          64.1177   80.9270   14.3177 O.3     1  UNL1       -0.3818
     12 C          64.0502   83.5237   14.2681 C.3     1  UNL1        0.1642
     13 O          64.6929   83.5663   15.6228 O.3     1  UNL1       -0.3795
     14 C          63.6951   84.8008   13.5660 C.3     1  UNL1        0.1436
     15 O          63.9827   86.1204   14.2185 O.3     1  UNL1       -0.3816
     16 H          64.5218   81.1312   15.1756 H       1  UNL1        0.2104
     17 H          64.8552   82.6614   15.9322 H       1  UNL1        0.2105
     18 H          64.3959   85.9703   15.0831 H       1  UNL1        0.2105
     19 C          62.8322   80.8418   11.6084 C.3     1  UNL1        0.1396
     20 O          62.5217   79.6403   12.4510 O.3     1  UNL1       -0.3819
     21 H          63.3048   79.3978   12.9694 H       1  UNL1        0.2104
     22 O          62.4427   84.7354    9.2740 O.3     1  UNL1       -0.4716
     23 C          62.7807   84.7448    7.8126 C.3     1  UNL1        0.2525
     24 O          61.6317   89.8663    9.4026 O.3     1  UNL1       -0.4716
     25 C          60.2175   90.1157    8.9692 C.3     1  UNL1        0.2525
     26 C          62.2413   89.8890   12.3399 C.3     1  UNL1        0.0557
     27 C          66.0540   91.8170   13.7529 C.ar    1  UNL1       -0.0222
     28 C          65.4513   92.2206   12.4400 C.ar    1  UNL1       -0.0046
     29 C          64.1804   91.5779   11.9690 C.ar    1  UNL1       -0.0043
     30 C          63.5122   90.5317   12.8109 C.ar    1  UNL1       -0.0177
     31 C          64.1149   90.1281   14.1238 C.ar    1  UNL1       -0.0043
     32 C          65.3858   90.7708   14.5948 C.ar    1  UNL1       -0.0046
     33 C          67.9707   91.9999   15.4972 C.3     1  UNL1        0.0050
     34 C          67.3249   92.4597   14.2239 C.3     1  UNL1        0.0264
@<TRIPOS>BOND
     1    33    34    1
     2    34    27    1
     3    27    28   ar
     4    28    29   ar
     5    29    30   ar
     6    30    26    1
     7    26     1    1
     8     1     2   ar
     9     2     3   ar
    10     7     3    1
    11     7     8    1
    12     8     9    1
    13     9    19    1
    14    19    20    1
    15     9    10    1
    16    10    11    1
    17    10    12    1
    18    12    13    1
    19    12    14    1
    20    14    15    1
    21     3     4   ar
    22     4    22    1
    23    22    23    1
    24     4     5   ar
    25     5     6   ar
    26     6    24    1
    27    24    25    1
    28    30    31   ar
    29    31    32   ar
    30    32    27   ar
    31     6     1   ar
    32    14     7    1
    33    20    21    1
    34    11    16    1
    35    13    17    1
    36    15    18    1
