@<TRIPOS>MOLECULE
*****
 30 34 0 0 0
SMALL
GASTEIGER

@<TRIPOS>ATOM
      1 C          62.5046   85.8557   12.2920 C.ar    1  UNL1        0.0004
      2 C          61.6775   85.8743   11.0408 C.ar    1  UNL1        0.0031
      3 C          61.5508   87.1390   10.2443 C.ar    1  UNL1        0.0370
      4 C          62.2511   88.3851   10.6991 C.ar    1  UNL1        0.1415
      5 C          63.0781   88.3665   11.9503 C.ar    1  UNL1        0.0699
      6 C          63.2049   87.1018   12.7467 C.ar    1  UNL1        0.0061
      7 C          63.8527   89.4882   12.5762 C.ar    1  UNL1        0.1718
      8 N          64.6467   89.3398   13.8400 N.ar    1  UNL1       -0.1258
      9 N          65.2763   90.6655   14.1504 N.ar    1  UNL1       -0.0913
     10 C          64.8712   91.6332   13.0783 C.ar    1  UNL1        0.3249
     11 N          63.9914   90.9057   12.1053 N.ar    1  UNL1       -0.2613
     12 C          63.3899   91.5514   10.8924 C.3     1  UNL1        0.1592
     13 C          62.5011   90.9393    9.8507 C.3     1  UNL1        0.2299
     14 O          61.9943   89.5301    9.7647 O.3     1  UNL1       -0.4733
     15 C          62.7847   80.6708   12.4894 C.3     1  UNL1        0.0521
     16 C          62.7715   81.9985   13.1872 C.ar    1  UNL1        0.0594
     17 C          62.6447   83.2632   12.3907 C.ar    1  UNL1        0.0147
     18 C          62.6314   84.5909   13.0885 C.ar    1  UNL1        0.0027
     19 C          62.7450   84.6540   14.5829 C.ar    1  UNL1        0.0207
     20 C          62.8718   83.3893   15.3794 C.ar    1  UNL1        0.0984
     21 N          62.8850   82.0615   14.6816 N.ar    1  UNL1       -0.2481
     22 O          65.2752   93.0754   12.9940 O.3     1  UNL1       -0.4201
     23 C          66.0126   93.5786   11.7885 C.ar    1  UNL1        0.1767
     24 C          65.6483   94.9027   11.1852 C.ar    1  UNL1        0.0400
     25 C          66.3858   95.4058    9.9797 C.ar    1  UNL1        0.0041
     26 C          67.4873   94.5848    9.3777 C.ar    1  UNL1        0.0139
     27 C          67.8515   93.2607    9.9810 C.ar    1  UNL1        0.0881
     28 CL         68.9530   92.4397    9.3789 Cl      1  UNL1       -0.0798
     29 C          67.1141   92.7576   11.1865 C.ar    1  UNL1        0.1849
     30 F          67.4783   91.4334   11.7897 F       1  UNL1       -0.2000
@<TRIPOS>BOND
     1    15    16    1
     2    16    17   ar
     3    17    18   ar
     4    18     1    1
     5     1     2   ar
     6     2     3   ar
     7     3     4   ar
     8     4     5   ar
     9     5     6   ar
    10     5     7    1
    11     7     8   ar
    12     8     9   ar
    13     9    10   ar
    14    10    22    1
    15    22    23    1
    16    23    24   ar
    17    24    25   ar
    18    25    26   ar
    19    26    27   ar
    20    27    28    1
    21    27    29   ar
    22    29    30    1
    23    10    11   ar
    24    11    12    1
    25    12    13    1
    26    13    14    1
    27    18    19   ar
    28    19    20   ar
    29    20    21   ar
    30    21    16   ar
    31     6     1   ar
    32    11     7   ar
    33    14     4    1
    34    29    23   ar
@<TRIPOS>MOLECULE
*****
 30 34 0 0 0
SMALL
GASTEIGER

@<TRIPOS>ATOM
      1 C          62.5322   84.9165   11.0157 C.ar    1  UNL1        0.0004
      2 C          61.9309   85.3543    9.7131 C.ar    1  UNL1        0.0031
      3 C          61.8063   86.8156    9.3981 C.ar    1  UNL1        0.0370
      4 C          62.2828   87.8390   10.3858 C.ar    1  UNL1        0.1415
      5 C          62.8841   87.4012   11.6884 C.ar    1  UNL1        0.0699
      6 C          63.0087   85.9399   12.0033 C.ar    1  UNL1        0.0061
      7 C          63.4178   88.2497   12.8043 C.ar    1  UNL1        0.1718
      8 N          63.9983   87.6851   14.0668 N.ar    1  UNL1       -0.1258
      9 N          64.4215   88.8321   14.9360 N.ar    1  UNL1       -0.0913
     10 C          64.1024   90.1056   14.2105 C.ar    1  UNL1        0.3249
     11 N          63.4820   89.7457   12.8931 N.ar    1  UNL1       -0.2613
     12 C          63.0285   90.7626   11.8880 C.3     1  UNL1        0.1592
     13 C          62.3987   90.5347   10.5459 C.3     1  UNL1        0.2299
     14 O          62.0668   89.2335    9.8773 O.3     1  UNL1       -0.4733
     15 C          61.7314   80.9247   14.2444 C.3     1  UNL1        0.0521
     16 C          62.2565   81.4593   12.9450 C.ar    1  UNL1        0.0594
     17 C          62.1318   82.9206   12.6300 C.ar    1  UNL1        0.0147
     18 C          62.6568   83.4552   11.3306 C.ar    1  UNL1        0.0027
     19 C          63.3066   82.5286   10.3461 C.ar    1  UNL1        0.0207
     20 C          63.4313   81.0674   10.6610 C.ar    1  UNL1        0.0984
     21 N          62.9062   80.5327   11.9605 N.ar    1  UNL1       -0.2481
     22 O          64.3586   91.4951   14.7142 O.3     1  UNL1       -0.4201
     23 C          65.7663   91.9703   14.9207 C.ar    1  UNL1        0.1767
     24 C          66.1538   92.6286   16.2117 C.ar    1  UNL1        0.0400
     25 C          67.5615   93.1039   16.4181 C.ar    1  UNL1        0.0041
     26 C          68.5815   92.9208   15.3337 C.ar    1  UNL1        0.0139
     27 C          68.1940   92.2625   14.0428 C.ar    1  UNL1        0.0881
     28 CL         69.2140   92.0795   12.9584 Cl      1  UNL1       -0.0798
     29 C          66.7863   91.7873   13.8364 C.ar    1  UNL1        0.1849
     30 F          66.3988   91.1290   12.5454 F       1  UNL1       -0.2000
@<TRIPOS>BOND
     1    15    16    1
     2    16    17   ar
     3    17    18   ar
     4    18     1    1
     5     1     2   ar
     6     2     3   ar
     7     3     4   ar
     8     4     5   ar
     9     5     6   ar
    10     5     7    1
    11     7     8   ar
    12     8     9   ar
    13     9    10   ar
    14    10    22    1
    15    22    23    1
    16    23    24   ar
    17    24    25   ar
    18    25    26   ar
    19    26    27   ar
    20    27    28    1
    21    27    29   ar
    22    29    30    1
    23    10    11   ar
    24    11    12    1
    25    12    13    1
    26    13    14    1
    27    18    19   ar
    28    19    20   ar
    29    20    21   ar
    30    21    16   ar
    31     6     1   ar
    32    11     7   ar
    33    14     4    1
    34    29    23   ar
@<TRIPOS>MOLECULE
*****
 30 34 0 0 0
SMALL
GASTEIGER

@<TRIPOS>ATOM
      1 C          62.5363   84.3472   11.3484 C.ar    1  UNL1        0.0004
      2 C          62.0530   84.7074    9.9749 C.ar    1  UNL1        0.0031
      3 C          61.9918   86.1460    9.5546 C.ar    1  UNL1        0.0370
      4 C          62.4139   87.2244   10.5079 C.ar    1  UNL1        0.1415
      5 C          62.8972   86.8643   11.8814 C.ar    1  UNL1        0.0699
      6 C          62.9584   85.4257   12.3017 C.ar    1  UNL1        0.0061
      7 C          63.3614   87.7759   12.9784 C.ar    1  UNL1        0.1718
      8 N          63.8241   87.2870   14.3189 N.ar    1  UNL1       -0.1258
      9 N          64.2057   88.4818   15.1417 N.ar    1  UNL1       -0.0913
     10 C          63.9787   89.7090   14.3098 C.ar    1  UNL1        0.3249
     11 N          63.4570   89.2729   12.9728 N.ar    1  UNL1       -0.2613
     12 C          63.1119   90.2279   11.8688 C.3     1  UNL1        0.1592
     13 C          62.5861   89.9219   10.4977 C.3     1  UNL1        0.2299
     14 O          62.2754   88.5851    9.8921 O.3     1  UNL1       -0.4733
     15 C          62.9822   79.3167   10.1254 C.3     1  UNL1        0.0521
     16 C          62.8205   80.3933   11.1572 C.ar    1  UNL1        0.0594
     17 C          62.7592   81.8320   10.7369 C.ar    1  UNL1        0.0147
     18 C          62.5975   82.9086   11.7688 C.ar    1  UNL1        0.0027
     19 C          62.4971   82.5466   13.2210 C.ar    1  UNL1        0.0207
     20 C          62.5583   81.1081   13.6413 C.ar    1  UNL1        0.0984
     21 N          62.7200   80.0314   12.6094 N.ar    1  UNL1       -0.2481
     22 O          64.2296   91.1242   14.7394 O.3     1  UNL1       -0.4201
     23 C          65.5625   91.7616   14.4806 C.ar    1  UNL1        0.1767
     24 C          66.1873   91.6675   13.1201 C.ar    1  UNL1        0.0400
     25 C          67.5203   92.3050   12.8614 C.ar    1  UNL1        0.0041
     26 C          68.2284   93.0363   13.9630 C.ar    1  UNL1        0.0139
     27 C          67.6036   93.1304   15.3234 C.ar    1  UNL1        0.0881
     28 CL         68.3117   93.8617   16.4250 Cl      1  UNL1       -0.0798
     29 C          66.2706   92.4929   15.5822 C.ar    1  UNL1        0.1849
     30 F          65.6459   92.5870   16.9427 F       1  UNL1       -0.2000
@<TRIPOS>BOND
     1    15    16    1
     2    16    17   ar
     3    17    18   ar
     4    18     1    1
     5     1     2   ar
     6     2     3   ar
     7     3     4   ar
     8     4     5   ar
     9     5     6   ar
    10     5     7    1
    11     7     8   ar
    12     8     9   ar
    13     9    10   ar
    14    10    22    1
    15    22    23    1
    16    23    24   ar
    17    24    25   ar
    18    25    26   ar
    19    26    27   ar
    20    27    28    1
    21    27    29   ar
    22    29    30    1
    23    10    11   ar
    24    11    12    1
    25    12    13    1
    26    13    14    1
    27    18    19   ar
    28    19    20   ar
    29    20    21   ar
    30    21    16   ar
    31     6     1   ar
    32    11     7   ar
    33    14     4    1
    34    29    23   ar
@<TRIPOS>MOLECULE
*****
 30 34 0 0 0
SMALL
GASTEIGER

@<TRIPOS>ATOM
      1 C          72.7213   80.1194    9.6256 C.ar    1  UNL1        0.0004
      2 C          73.3897   81.3267   10.2135 C.ar    1  UNL1        0.0031
      3 C          73.6330   81.4040   11.6916 C.ar    1  UNL1        0.0370
      4 C          73.2079   80.2740   12.5817 C.ar    1  UNL1        0.1415
      5 C          72.5396   79.0667   11.9938 C.ar    1  UNL1        0.0699
      6 C          72.2962   78.9894   10.5157 C.ar    1  UNL1        0.0061
      7 C          72.0408   77.8388   12.6962 C.ar    1  UNL1        0.1718
      8 N          71.3845   76.6908   11.9881 N.ar    1  UNL1       -0.1258
      9 N          71.0253   75.6574   13.0144 N.ar    1  UNL1       -0.0913
     10 C          71.4596   76.1668   14.3567 C.ar    1  UNL1        0.3249
     11 N          72.0872   77.5149   14.1601 N.ar    1  UNL1       -0.2613
     12 C          72.6439   78.3389   15.2831 C.3     1  UNL1        0.1592
     13 C          73.2916   79.6904   15.2196 C.3     1  UNL1        0.2299
     14 O          73.5426   80.5516   14.0173 O.3     1  UNL1       -0.4733
     15 C          73.6330   77.8807    5.0259 C.3     1  UNL1        0.0521
     16 C          72.9338   78.9227    5.8476 C.ar    1  UNL1        0.0594
     17 C          73.1772   79.0000    7.3257 C.ar    1  UNL1        0.0147
     18 C          72.4780   80.0421    8.1474 C.ar    1  UNL1        0.0027
     19 C          71.5355   81.0069    7.4910 C.ar    1  UNL1        0.0207
     20 C          71.2921   80.9296    6.0129 C.ar    1  UNL1        0.0984
     21 N          71.9913   79.8875    5.1912 N.ar    1  UNL1       -0.2481
     22 O          71.2951   75.4532   15.6658 O.3     1  UNL1       -0.4201
     23 C          71.7565   74.0331   15.8091 C.ar    1  UNL1        0.1767
     24 C          72.7567   73.4684   14.8444 C.ar    1  UNL1        0.0400
     25 C          73.2179   72.0483   14.9877 C.ar    1  UNL1        0.0041
     26 C          72.6790   71.1929   16.0958 C.ar    1  UNL1        0.0139
     27 C          71.6788   71.7576   17.0606 C.ar    1  UNL1        0.0881
     28 CL         71.1399   70.9022   18.1686 Cl      1  UNL1       -0.0798
     29 C          71.2175   73.1777   16.9172 C.ar    1  UNL1        0.1849
     30 F          70.2173   73.7423   17.8820 F       1  UNL1       -0.2000
@<TRIPOS>BOND
     1    15    16    1
     2    16    17   ar
     3    17    18   ar
     4    18     1    1
     5     1     2   ar
     6     2     3   ar
     7     3     4   ar
     8     4     5   ar
     9     5     6   ar
    10     5     7    1
    11     7     8   ar
    12     8     9   ar
    13     9    10   ar
    14    10    22    1
    15    22    23    1
    16    23    24   ar
    17    24    25   ar
    18    25    26   ar
    19    26    27   ar
    20    27    28    1
    21    27    29   ar
    22    29    30    1
    23    10    11   ar
    24    11    12    1
    25    12    13    1
    26    13    14    1
    27    18    19   ar
    28    19    20   ar
    29    20    21   ar
    30    21    16   ar
    31     6     1   ar
    32    11     7   ar
    33    14     4    1
    34    29    23   ar
