@<TRIPOS>MOLECULE
*****
 26 29 0 0 0
SMALL
GASTEIGER

@<TRIPOS>ATOM
      1 C          66.0486   93.8771   11.9410 C.2     1  UNL1        0.0919
      2 C          66.6127   94.2638   13.2760 C.2     1  UNL1        0.0183
      3 C          66.4259   93.3610   14.4592 C.2     1  UNL1        0.0511
      4 C          65.6750   92.0714   14.3074 C.2     1  UNL1        0.2322
      5 N          65.3344   90.9871   15.2863 N.2     1  UNL1       -0.0308
      6 C          64.5598   89.9301   14.5563 C.2     1  UNL1        0.3753
      7 N          64.4217   90.3613   13.1262 N.2     1  UNL1       -0.0347
      8 C          65.1109   91.6847   12.9725 C.2     1  UNL1        0.2191
      9 C          65.2977   92.5875   11.7893 C.3     1  UNL1        0.1226
     10 C          64.0184   88.6643   15.1518 C.ar    1  UNL1        0.0914
     11 C          63.4060   88.6816   16.5210 C.ar    1  UNL1        0.0284
     12 C          62.8646   87.4159   17.1165 C.ar    1  UNL1        0.0991
     13 N          62.9356   86.1328   16.3429 N.ar    1  UNL1       -0.2438
     14 C          63.5479   86.1155   14.9737 C.ar    1  UNL1        0.0816
     15 C          64.0893   87.3812   14.3781 C.ar    1  UNL1        0.0268
     16 C          63.6189   84.8323   14.2000 C.ar    1  UNL1        0.0177
     17 C          63.8152   83.5317   14.9210 C.ar    1  UNL1        0.0015
     18 C          63.8861   82.2486   14.1474 C.ar    1  UNL1        0.0000
     19 C          63.7608   82.2661   12.6527 C.ar    1  UNL1        0.0000
     20 C          63.5645   83.5667   11.9317 C.ar    1  UNL1        0.0000
     21 C          63.4935   84.8498   12.7054 C.ar    1  UNL1        0.0015
     22 S          66.2355   94.7799   10.7578 S.O2    1  UNL1        0.0054
     23 O          66.4338   93.5830    9.8758 O.2     1  UNL1       -0.1689
     24 O          66.0372   95.9769   11.6398 O.2     1  UNL1       -0.1689
     25 C          67.4699   95.3673    8.5485 C.3     1  UNL1        0.0276
     26 C          66.4223   95.6828    9.5746 C.3     1  UNL1        0.1556
@<TRIPOS>BOND
     1    25    26    1
     2    26    22    1
     3    22    23    2
     4    22    24    2
     5    22     1    1
     6     1     2    2
     7     2     3    1
     8     3     4    2
     9     4     5    1
    10     5     6    2
    11     6    10    1
    12    10    11   ar
    13    11    12   ar
    14    12    13   ar
    15    13    14   ar
    16    14    16    1
    17    16    17   ar
    18    17    18   ar
    19    18    19   ar
    20    19    20   ar
    21    20    21   ar
    22    14    15   ar
    23     6     7    1
    24     7     8    2
    25     8     9    1
    26     9     1    1
    27     8     4    1
    28    15    10   ar
    29    21    16   ar
@<TRIPOS>MOLECULE
*****
 26 29 0 0 0
SMALL
GASTEIGER

@<TRIPOS>ATOM
      1 C          66.1469   94.3525   11.1524 C.2     1  UNL1        0.0919
      2 C          66.4540   94.0260   12.5839 C.2     1  UNL1        0.0183
      3 C          65.8434   92.8149   13.2246 C.2     1  UNL1        0.0511
      4 C          64.9257   91.9303   12.4338 C.2     1  UNL1        0.2322
      5 N          64.1815   90.6787   12.7937 N.2     1  UNL1       -0.0308
      6 C          63.4144   90.2316   11.5847 C.2     1  UNL1        0.3753
      7 N          63.6845   91.2069   10.4776 N.2     1  UNL1       -0.0347
      8 C          64.6186   92.2568   11.0024 C.2     1  UNL1        0.2191
      9 C          65.2292   93.4679   10.3617 C.3     1  UNL1        0.1226
     10 C          62.5320   89.0216   11.4981 C.ar    1  UNL1        0.0914
     11 C          61.1068   89.1631   11.0522 C.ar    1  UNL1        0.0284
     12 C          60.2244   87.9532   10.9656 C.ar    1  UNL1        0.0991
     13 N          60.7673   86.6018   11.3248 N.ar    1  UNL1       -0.2438
     14 C          62.1925   86.4604   11.7707 C.ar    1  UNL1        0.0816
     15 C          63.0748   87.6703   11.8573 C.ar    1  UNL1        0.0268
     16 C          62.7353   85.1089   12.1299 C.ar    1  UNL1        0.0177
     17 C          62.7672   84.0162   11.1028 C.ar    1  UNL1        0.0015
     18 C          63.3100   82.6649   11.4621 C.ar    1  UNL1        0.0000
     19 C          63.8210   82.4062   12.8484 C.ar    1  UNL1        0.0000
     20 C          63.7891   83.4989   13.8755 C.ar    1  UNL1        0.0000
     21 C          63.2463   84.8502   13.5163 C.ar    1  UNL1        0.0015
     22 S          66.7574   95.5635   10.5117 S.O2    1  UNL1        0.0054
     23 O          67.7916   94.6960    9.8575 O.2     1  UNL1       -0.1689
     24 O          65.7233   96.4310   11.1659 O.2     1  UNL1       -0.1689
     25 C          67.4827   96.8557    8.3776 C.3     1  UNL1        0.0276
     26 C          67.3680   96.7746    9.8710 C.3     1  UNL1        0.1556
@<TRIPOS>BOND
     1    25    26    1
     2    26    22    1
     3    22    23    2
     4    22    24    2
     5    22     1    1
     6     1     2    2
     7     2     3    1
     8     3     4    2
     9     4     5    1
    10     5     6    2
    11     6    10    1
    12    10    11   ar
    13    11    12   ar
    14    12    13   ar
    15    13    14   ar
    16    14    16    1
    17    16    17   ar
    18    17    18   ar
    19    18    19   ar
    20    19    20   ar
    21    20    21   ar
    22    14    15   ar
    23     6     7    1
    24     7     8    2
    25     8     9    1
    26     9     1    1
    27     8     4    1
    28    15    10   ar
    29    21    16   ar
@<TRIPOS>MOLECULE
*****
 26 29 0 0 0
SMALL
GASTEIGER

@<TRIPOS>ATOM
      1 C          62.8262   84.0623   13.4014 C.2     1  UNL1        0.0919
      2 C          62.2260   84.5361   12.1110 C.2     1  UNL1        0.0183
      3 C          62.3613   85.9735   11.7040 C.2     1  UNL1        0.0511
      4 C          63.0968   86.9371   12.5875 C.2     1  UNL1        0.2322
      5 N          63.3895   88.4018   12.4504 N.2     1  UNL1       -0.0308
      6 C          64.1706   88.8333   13.6562 C.2     1  UNL1        0.3753
      7 N          64.3606   87.6352   14.5385 N.2     1  UNL1       -0.0347
      8 C          63.6970   86.4633   13.8779 C.2     1  UNL1        0.2191
      9 C          63.5616   85.0259   14.2849 C.3     1  UNL1        0.1226
     10 C          64.6734   90.2196   13.9313 C.ar    1  UNL1        0.0914
     11 C          64.6491   90.7624   15.3294 C.ar    1  UNL1        0.0284
     12 C          65.1518   92.1486   15.6045 C.ar    1  UNL1        0.0991
     13 N          65.6788   92.9919   14.4816 N.ar    1  UNL1       -0.2438
     14 C          65.7031   92.4490   13.0835 C.ar    1  UNL1        0.0816
     15 C          65.2004   91.0628   12.8083 C.ar    1  UNL1        0.0268
     16 C          66.2302   93.2924   11.9605 C.ar    1  UNL1        0.0177
     17 C          66.0874   94.7846   12.0124 C.ar    1  UNL1        0.0015
     18 C          66.6144   95.6279   10.8894 C.ar    1  UNL1        0.0000
     19 C          67.2843   94.9789    9.7146 C.ar    1  UNL1        0.0000
     20 C          67.4271   93.4867    9.6628 C.ar    1  UNL1        0.0000
     21 C          66.9000   92.6434   10.7857 C.ar    1  UNL1        0.0015
     22 S          62.6908   82.6249   13.8084 S.O2    1  UNL1        0.0054
     23 O          62.3823   82.2520   12.3886 O.2     1  UNL1       -0.1689
     24 O          62.9994   82.9979   15.2281 O.2     1  UNL1       -0.1689
     25 C          62.3439   80.1297   13.1732 C.3     1  UNL1        0.0276
     26 C          62.5555   81.1876   14.2153 C.3     1  UNL1        0.1556
@<TRIPOS>BOND
     1    25    26    1
     2    26    22    1
     3    22    23    2
     4    22    24    2
     5    22     1    1
     6     1     2    2
     7     2     3    1
     8     3     4    2
     9     4     5    1
    10     5     6    2
    11     6    10    1
    12    10    11   ar
    13    11    12   ar
    14    12    13   ar
    15    13    14   ar
    16    14    16    1
    17    16    17   ar
    18    17    18   ar
    19    18    19   ar
    20    19    20   ar
    21    20    21   ar
    22    14    15   ar
    23     6     7    1
    24     7     8    2
    25     8     9    1
    26     9     1    1
    27     8     4    1
    28    15    10   ar
    29    21    16   ar
@<TRIPOS>MOLECULE
*****
 26 29 0 0 0
SMALL
GASTEIGER

@<TRIPOS>ATOM
      1 C          63.4061   82.4340   12.3601 C.2     1  UNL1        0.0919
      2 C          63.6279   81.9930   13.7765 C.2     1  UNL1        0.0183
      3 C          63.7967   83.0142   14.8622 C.2     1  UNL1        0.0511
      4 C          63.7438   84.4763   14.5315 C.2     1  UNL1        0.2322
      5 N          63.8760   85.7035   15.3838 N.2     1  UNL1       -0.0308
      6 C          63.7359   86.9030   14.4941 C.2     1  UNL1        0.3753
      7 N          63.5171   86.4171   13.0919 N.2     1  UNL1       -0.0347
      8 C          63.5220   84.9172   13.1151 C.2     1  UNL1        0.2191
      9 C          63.3531   83.8961   12.0294 C.3     1  UNL1        0.1226
     10 C          63.8028   88.3368   14.9300 C.ar    1  UNL1        0.0914
     11 C          63.2727   88.7373   16.2749 C.ar    1  UNL1        0.0284
     12 C          63.3397   90.1709   16.7108 C.ar    1  UNL1        0.0991
     13 N          63.9366   91.2041   15.8019 N.ar    1  UNL1       -0.2438
     14 C          64.4666   90.8036   14.4571 C.ar    1  UNL1        0.0816
     15 C          64.3997   89.3700   14.0211 C.ar    1  UNL1        0.0268
     16 C          65.0636   91.8369   13.5481 C.ar    1  UNL1        0.0177
     17 C          65.9874   92.8802   14.1031 C.ar    1  UNL1        0.0015
     18 C          66.5843   93.9134   13.1942 C.ar    1  UNL1        0.0000
     19 C          66.2574   93.9033   11.7303 C.ar    1  UNL1        0.0000
     20 C          65.3336   92.8600   11.1753 C.ar    1  UNL1        0.0000
     21 C          64.7366   91.8268   12.0842 C.ar    1  UNL1        0.0015
     22 S          63.2372   81.4129   11.2744 S.O2    1  UNL1        0.0054
     23 O          63.7517   82.3985   10.2674 O.2     1  UNL1       -0.1689
     24 O          62.7228   80.4273   12.2813 O.2     1  UNL1       -0.1689
     25 C          62.7830   78.9621   10.5415 C.3     1  UNL1        0.0276
     26 C          63.0683   80.3918   10.1886 C.3     1  UNL1        0.1556
@<TRIPOS>BOND
     1    25    26    1
     2    26    22    1
     3    22    23    2
     4    22    24    2
     5    22     1    1
     6     1     2    2
     7     2     3    1
     8     3     4    2
     9     4     5    1
    10     5     6    2
    11     6    10    1
    12    10    11   ar
    13    11    12   ar
    14    12    13   ar
    15    13    14   ar
    16    14    16    1
    17    16    17   ar
    18    17    18   ar
    19    18    19   ar
    20    19    20   ar
    21    20    21   ar
    22    14    15   ar
    23     6     7    1
    24     7     8    2
    25     8     9    1
    26     9     1    1
    27     8     4    1
    28    15    10   ar
    29    21    16   ar
@<TRIPOS>MOLECULE
*****
 26 29 0 0 0
SMALL
GASTEIGER

@<TRIPOS>ATOM
      1 C          63.0150   82.6086   13.6484 C.2     1  UNL1        0.0919
      2 C          63.3554   82.7717   15.1001 C.2     1  UNL1        0.0183
      3 C          63.6815   84.1303   15.6459 C.2     1  UNL1        0.0511
      4 C          63.6671   85.3257   14.7400 C.2     1  UNL1        0.2322
      5 N          63.9435   86.7785   14.9909 N.2     1  UNL1       -0.0308
      6 C          63.7739   87.5133   13.6942 C.2     1  UNL1        0.3753
      7 N          63.3927   86.5146   12.6420 N.2     1  UNL1       -0.0347
      8 C          63.3268   85.1626   13.2883 C.2     1  UNL1        0.2191
      9 C          63.0007   83.8040   12.7425 C.3     1  UNL1        0.1226
     10 C          63.9539   88.9880   13.4864 C.ar    1  UNL1        0.0914
     11 C          62.9551   89.7584   12.6746 C.ar    1  UNL1        0.0284
     12 C          63.1351   91.2329   12.4668 C.ar    1  UNL1        0.0991
     13 N          64.3138   91.9371   13.0707 N.ar    1  UNL1       -0.2438
     14 C          65.3126   91.1667   13.8824 C.ar    1  UNL1        0.0816
     15 C          65.1326   89.6921   14.0903 C.ar    1  UNL1        0.0268
     16 C          66.4913   91.8709   14.4863 C.ar    1  UNL1        0.0177
     17 C          66.3402   92.6093   15.7832 C.ar    1  UNL1        0.0015
     18 C          67.5189   93.3135   16.3871 C.ar    1  UNL1        0.0000
     19 C          68.8488   93.2793   15.6940 C.ar    1  UNL1        0.0000
     20 C          68.9999   92.5409   14.3971 C.ar    1  UNL1        0.0000
     21 C          67.8212   91.8368   13.7933 C.ar    1  UNL1        0.0015
     22 S          62.6889   81.2500   13.1025 S.O2    1  UNL1        0.0054
     23 O          62.9366   80.6476   14.4537 O.2     1  UNL1       -0.1689
     24 O          62.4413   81.8523   11.7513 O.2     1  UNL1       -0.1689
     25 C          62.7408   79.5383   11.1487 C.3     1  UNL1        0.0276
     26 C          62.3629   79.8914   12.5567 C.3     1  UNL1        0.1556
@<TRIPOS>BOND
     1    25    26    1
     2    26    22    1
     3    22    23    2
     4    22    24    2
     5    22     1    1
     6     1     2    2
     7     2     3    1
     8     3     4    2
     9     4     5    1
    10     5     6    2
    11     6    10    1
    12    10    11   ar
    13    11    12   ar
    14    12    13   ar
    15    13    14   ar
    16    14    16    1
    17    16    17   ar
    18    17    18   ar
    19    18    19   ar
    20    19    20   ar
    21    20    21   ar
    22    14    15   ar
    23     6     7    1
    24     7     8    2
    25     8     9    1
    26     9     1    1
    27     8     4    1
    28    15    10   ar
    29    21    16   ar
@<TRIPOS>MOLECULE
*****
 26 29 0 0 0
SMALL
GASTEIGER

@<TRIPOS>ATOM
      1 C          61.0737   86.9021    8.6930 C.2     1  UNL1        0.0919
      2 C          60.2139   88.1226    8.5480 C.2     1  UNL1        0.0183
      3 C          60.3098   89.2314    9.5536 C.2     1  UNL1        0.0511
      4 C          61.2655   89.1198   10.7042 C.2     1  UNL1        0.2322
      5 N          61.5773   90.0445   11.8434 N.2     1  UNL1       -0.0308
      6 C          62.6299   89.3956   12.6925 C.2     1  UNL1        0.3753
      7 N          62.9687   88.0698   12.0781 N.2     1  UNL1       -0.0347
      8 C          62.1254   87.8994   10.8493 C.2     1  UNL1        0.2191
      9 C          62.0295   86.7905    9.8437 C.3     1  UNL1        0.1226
     10 C          63.2371   89.9714   13.9375 C.ar    1  UNL1        0.0914
     11 C          62.4962   89.8918   15.2393 C.ar    1  UNL1        0.0284
     12 C          63.1033   90.4676   16.4842 C.ar    1  UNL1        0.0991
     13 N          64.4514   91.1229   16.4273 N.ar    1  UNL1       -0.2438
     14 C          65.1923   91.2025   15.1255 C.ar    1  UNL1        0.0816
     15 C          64.5852   90.6267   13.8806 C.ar    1  UNL1        0.0268
     16 C          66.5404   91.8578   15.0686 C.ar    1  UNL1        0.0177
     17 C          67.4371   91.6276   13.8884 C.ar    1  UNL1        0.0015
     18 C          68.7851   92.2829   13.8316 C.ar    1  UNL1        0.0000
     19 C          69.2365   93.1685   14.9550 C.ar    1  UNL1        0.0000
     20 C          68.3398   93.3987   16.1352 C.ar    1  UNL1        0.0000
     21 C          66.9918   92.7434   16.1920 C.ar    1  UNL1        0.0015
     22 S          60.9778   85.7933    7.6874 S.O2    1  UNL1        0.0054
     23 O          62.4026   85.4167    7.9668 O.2     1  UNL1       -0.1689
     24 O          59.5530   86.1699    7.4080 O.2     1  UNL1       -0.1689
     25 C          62.0662   84.3425    5.8271 C.3     1  UNL1        0.0276
     26 C          60.8819   84.6844    6.6818 C.3     1  UNL1        0.1556
@<TRIPOS>BOND
     1    25    26    1
     2    26    22    1
     3    22    23    2
     4    22    24    2
     5    22     1    1
     6     1     2    2
     7     2     3    1
     8     3     4    2
     9     4     5    1
    10     5     6    2
    11     6    10    1
    12    10    11   ar
    13    11    12   ar
    14    12    13   ar
    15    13    14   ar
    16    14    16    1
    17    16    17   ar
    18    17    18   ar
    19    18    19   ar
    20    19    20   ar
    21    20    21   ar
    22    14    15   ar
    23     6     7    1
    24     7     8    2
    25     8     9    1
    26     9     1    1
    27     8     4    1
    28    15    10   ar
    29    21    16   ar
@<TRIPOS>MOLECULE
*****
 26 29 0 0 0
SMALL
GASTEIGER

@<TRIPOS>ATOM
      1 C          63.0054   82.1259   12.9653 C.2     1  UNL1        0.0919
      2 C          63.7259   82.6019   14.1918 C.2     1  UNL1        0.0183
      3 C          63.9361   84.0701   14.4158 C.2     1  UNL1        0.0511
      4 C          63.4258   85.0623   13.4132 C.2     1  UNL1        0.2322
      5 N          63.4837   86.5604   13.3647 N.2     1  UNL1       -0.0308
      6 C          62.7990   87.0103   12.1081 C.2     1  UNL1        0.3753
      7 N          62.3180   85.7903   11.3801 N.2     1  UNL1       -0.0347
      8 C          62.7054   84.5863   12.1867 C.2     1  UNL1        0.2191
      9 C          62.4952   83.1181   11.9628 C.3     1  UNL1        0.1226
     10 C          62.6258   88.4309   11.6586 C.ar    1  UNL1        0.0914
     11 C          61.4186   88.8226   10.8591 C.ar    1  UNL1        0.0284
     12 C          61.2453   90.2431   10.4096 C.ar    1  UNL1        0.0991
     13 N          62.2793   91.2719   10.7596 N.ar    1  UNL1       -0.2438
     14 C          63.4865   90.8802   11.5591 C.ar    1  UNL1        0.0816
     15 C          63.6598   89.4597   12.0086 C.ar    1  UNL1        0.0268
     16 C          64.5205   91.9090   11.9090 C.ar    1  UNL1        0.0177
     17 C          64.9858   92.8876   10.8718 C.ar    1  UNL1        0.0015
     18 C          66.0198   93.9164   11.2218 C.ar    1  UNL1        0.0000
     19 C          66.5884   93.9666   12.6090 C.ar    1  UNL1        0.0000
     20 C          66.1230   92.9880   13.6461 C.ar    1  UNL1        0.0000
     21 C          65.0891   91.9592   13.2962 C.ar    1  UNL1        0.0015
     22 S          62.7952   80.6577   12.7413 S.O2    1  UNL1        0.0054
     23 O          62.4603   80.4842   14.1931 O.2     1  UNL1       -0.1689
     24 O          63.1302   80.8312   11.2896 O.2     1  UNL1       -0.1689
     25 C          62.6342   78.6283   11.1272 C.3     1  UNL1        0.0276
     26 C          62.5850   79.1895   12.5174 C.3     1  UNL1        0.1556
@<TRIPOS>BOND
     1    25    26    1
     2    26    22    1
     3    22    23    2
     4    22    24    2
     5    22     1    1
     6     1     2    2
     7     2     3    1
     8     3     4    2
     9     4     5    1
    10     5     6    2
    11     6    10    1
    12    10    11   ar
    13    11    12   ar
    14    12    13   ar
    15    13    14   ar
    16    14    16    1
    17    16    17   ar
    18    17    18   ar
    19    18    19   ar
    20    19    20   ar
    21    20    21   ar
    22    14    15   ar
    23     6     7    1
    24     7     8    2
    25     8     9    1
    26     9     1    1
    27     8     4    1
    28    15    10   ar
    29    21    16   ar
@<TRIPOS>MOLECULE
*****
 26 29 0 0 0
SMALL
GASTEIGER

@<TRIPOS>ATOM
      1 C          62.9386   82.4853   12.1005 C.2     1  UNL1        0.0919
      2 C          62.7049   83.2552   10.8345 C.2     1  UNL1        0.0183
      3 C          62.7686   84.7538   10.8454 C.2     1  UNL1        0.0511
      4 C          63.0659   85.4825   12.1223 C.2     1  UNL1        0.2322
      5 N          63.1920   86.9434   12.4383 N.2     1  UNL1       -0.0308
      6 C          63.5035   87.0765   13.8995 C.2     1  UNL1        0.3753
      7 N          63.5700   85.6978   14.4867 N.2     1  UNL1       -0.0347
      8 C          63.2996   84.7127   13.3883 C.2     1  UNL1        0.2191
      9 C          63.2359   83.2141   13.3773 C.3     1  UNL1        0.1226
     10 C          63.7119   88.3625   14.6431 C.ar    1  UNL1        0.0914
     11 C          63.2574   88.4877   16.0670 C.ar    1  UNL1        0.0284
     12 C          63.4658   89.7736   16.8106 C.ar    1  UNL1        0.0991
     13 N          64.1287   90.9344   16.1301 N.ar    1  UNL1       -0.2438
     14 C          64.5833   90.8092   14.7061 C.ar    1  UNL1        0.0816
     15 C          64.3749   89.5233   13.9626 C.ar    1  UNL1        0.0268
     16 C          65.2463   91.9701   14.0257 C.ar    1  UNL1        0.0177
     17 C          65.1028   92.1526   12.5438 C.ar    1  UNL1        0.0015
     18 C          65.7657   93.3134   11.8634 C.ar    1  UNL1        0.0000
     19 C          66.5722   94.2917   12.6650 C.ar    1  UNL1        0.0000
     20 C          66.7157   94.1093   14.1469 C.ar    1  UNL1        0.0000
     21 C          66.0527   92.9485   14.8272 C.ar    1  UNL1        0.0015
     22 S          62.8749   80.9867   12.0896 S.O2    1  UNL1        0.0054
     23 O          62.6848   80.9839   13.5775 O.2     1  UNL1       -0.1689
     24 O          63.0650   80.9895   10.6016 O.2     1  UNL1       -0.1689
     25 C          62.9243   78.7420   10.7823 C.3     1  UNL1        0.0276
     26 C          62.8112   79.4881   12.0786 C.3     1  UNL1        0.1556
@<TRIPOS>BOND
     1    25    26    1
     2    26    22    1
     3    22    23    2
     4    22    24    2
     5    22     1    1
     6     1     2    2
     7     2     3    1
     8     3     4    2
     9     4     5    1
    10     5     6    2
    11     6    10    1
    12    10    11   ar
    13    11    12   ar
    14    12    13   ar
    15    13    14   ar
    16    14    16    1
    17    16    17   ar
    18    17    18   ar
    19    18    19   ar
    20    19    20   ar
    21    20    21   ar
    22    14    15   ar
    23     6     7    1
    24     7     8    2
    25     8     9    1
    26     9     1    1
    27     8     4    1
    28    15    10   ar
    29    21    16   ar
@<TRIPOS>MOLECULE
*****
 26 29 0 0 0
SMALL
GASTEIGER

@<TRIPOS>ATOM
      1 C          61.9892   86.0531   10.6679 C.2     1  UNL1        0.0919
      2 C          62.0183   87.2653   11.5509 C.2     1  UNL1        0.0183
      3 C          61.5117   88.5801   11.0366 C.2     1  UNL1        0.0511
      4 C          60.9760   88.6828    9.6394 C.2     1  UNL1        0.2322
      5 N          60.4126   89.8357    8.8626 N.2     1  UNL1       -0.0308
      6 C          60.0353   89.3360    7.4995 C.2     1  UNL1        0.3753
      7 N          60.3655   87.8743    7.4338 N.2     1  UNL1       -0.0347
      8 C          60.9469   87.4706    8.7564 C.2     1  UNL1        0.2191
      9 C          61.4535   86.1558    9.2707 C.3     1  UNL1        0.1226
     10 C          59.4335   90.1545    6.3958 C.ar    1  UNL1        0.0914
     11 C          57.9429   90.2744    6.2782 C.ar    1  UNL1        0.0284
     12 C          57.3411   91.0928    5.1746 C.ar    1  UNL1        0.0991
     13 N          58.2298   91.7913    4.1886 N.ar    1  UNL1       -0.2438
     14 C          59.7204   91.6714    4.3062 C.ar    1  UNL1        0.0816
     15 C          60.3222   90.8530    5.4098 C.ar    1  UNL1        0.0268
     16 C          60.6091   92.3699    3.3201 C.ar    1  UNL1        0.0177
     17 C          62.0491   91.9696    3.1934 C.ar    1  UNL1        0.0015
     18 C          62.9378   92.6681    2.2074 C.ar    1  UNL1        0.0000
     19 C          62.3864   93.7670    1.3481 C.ar    1  UNL1        0.0000
     20 C          60.9464   94.1674    1.4748 C.ar    1  UNL1        0.0000
     21 C          60.0578   93.4689    2.4608 C.ar    1  UNL1        0.0015
     22 S          62.4959   84.7382   11.1822 S.O2    1  UNL1        0.0054
     23 O          62.0216   85.0944   12.5600 O.2     1  UNL1       -0.1689
     24 O          62.9702   84.3821    9.8045 O.2     1  UNL1       -0.1689
     25 C          64.2591   82.8308   11.1310 C.3     1  UNL1        0.0276
     26 C          63.0025   83.4234   11.6965 C.3     1  UNL1        0.1556
@<TRIPOS>BOND
     1    25    26    1
     2    26    22    1
     3    22    23    2
     4    22    24    2
     5    22     1    1
     6     1     2    2
     7     2     3    1
     8     3     4    2
     9     4     5    1
    10     5     6    2
    11     6    10    1
    12    10    11   ar
    13    11    12   ar
    14    12    13   ar
    15    13    14   ar
    16    14    16    1
    17    16    17   ar
    18    17    18   ar
    19    18    19   ar
    20    19    20   ar
    21    20    21   ar
    22    14    15   ar
    23     6     7    1
    24     7     8    2
    25     8     9    1
    26     9     1    1
    27     8     4    1
    28    15    10   ar
    29    21    16   ar
