@<TRIPOS>MOLECULE
*****
 25 27 0 0 0
SMALL
GASTEIGER

@<TRIPOS>ATOM
      1 N          68.1325   93.5542   15.3912 N.pl3   1  UNL1       -0.3375
      2 C          67.1030   92.9722   14.4684 C.ar    1  UNL1        0.1568
      3 N          66.8598   93.3841   13.0468 N.ar    1  UNL1       -0.2214
      4 C          65.7424   92.5426   12.5050 C.ar    1  UNL1        0.1227
      5 C          65.0745   92.5046   11.1625 C.ar    1  UNL1        0.1518
      6 O          65.5219   93.4365   10.0756 O.3     1  UNL1       -0.5040
      7 C          63.9592   91.5346   10.9068 C.ar    1  UNL1        0.0427
      8 C          63.5118   90.6027   11.9937 C.ar    1  UNL1        0.0570
      9 C          64.1798   90.6407   13.3363 C.ar    1  UNL1        0.0128
     10 C          65.2950   91.6107   13.5920 C.ar    1  UNL1        0.0528
     11 S          66.1359   91.8762   14.8054 S.2     1  UNL1       -0.0519
     12 H          68.7246   94.2749   15.0762 H       1  UNL1        0.1442
     13 H          68.2161   93.2154   16.3118 H       1  UNL1        0.1442
     14 H          66.2185   94.0424   10.2353 H       1  UNL1        0.2923
     15 C          62.3966   89.6327   11.7381 C.2     1  UNL1        0.2462
     16 O          61.1975   89.6141   12.6391 O.2     1  UNL1       -0.2701
     17 N          62.4805   88.6814   10.5815 N.am    1  UNL1       -0.2969
     18 H          63.2675   88.6936    9.9901 H       1  UNL1        0.1501
     19 C          61.3652   87.7113   10.3258 C.3     1  UNL1        0.1166
     20 C          61.4566   86.7487    9.1791 C.ar    1  UNL1       -0.0026
     21 C          60.2636   86.5130    8.3008 C.ar    1  UNL1       -0.0026
     22 C          60.3550   85.5503    7.1541 C.ar    1  UNL1       -0.0003
     23 C          61.6394   84.8235    6.8856 C.ar    1  UNL1       -0.0000
     24 C          62.8323   85.0592    7.7638 C.ar    1  UNL1       -0.0003
     25 C          62.7409   86.0218    8.9105 C.ar    1  UNL1       -0.0026
@<TRIPOS>BOND
     1     1     2    1
     2     2     3   ar
     3     3     4   ar
     4     4     5   ar
     5     5     6    1
     6     5     7   ar
     7     7     8   ar
     8     8    15    1
     9    15    16    2
    10    15    17   am
    11    17    19    1
    12    19    20    1
    13    20    21   ar
    14    21    22   ar
    15    22    23   ar
    16    23    24   ar
    17    24    25   ar
    18     8     9   ar
    19     9    10   ar
    20    10    11   ar
    21    11     2   ar
    22    10     4   ar
    23    25    20   ar
    24     1    12    1
    25     1    13    1
    26     6    14    1
    27    17    18    1
@<TRIPOS>MOLECULE
*****
 25 27 0 0 0
SMALL
GASTEIGER

@<TRIPOS>ATOM
      1 N          67.0776   95.6454   10.6643 N.pl3   1  UNL1       -0.3375
      2 C          66.3789   94.4305   11.1991 C.ar    1  UNL1        0.1568
      3 N          66.4684   93.9081   12.6023 N.ar    1  UNL1       -0.2214
      4 C          65.6129   92.6795   12.6950 C.ar    1  UNL1        0.1227
      5 C          65.3170   91.7459   13.8311 C.ar    1  UNL1        0.1518
      6 O          65.9352   91.9829   15.1771 O.3     1  UNL1       -0.5040
      7 C          64.4028   90.5753   13.6213 C.ar    1  UNL1        0.0427
      8 C          63.7846   90.3383   12.2754 C.ar    1  UNL1        0.0570
      9 C          64.0805   91.2720   11.1392 C.ar    1  UNL1        0.0128
     10 C          64.9947   92.4426   11.3491 C.ar    1  UNL1        0.0528
     11 S          65.4681   93.5248   10.4245 S.2     1  UNL1       -0.0519
     12 H          67.6583   96.1788   11.2538 H       1  UNL1        0.1442
     13 H          66.9554   95.9094    9.7237 H       1  UNL1        0.1442
     14 H          66.5063   92.7141   15.3082 H       1  UNL1        0.2923
     15 C          62.8704   89.1678   12.0655 C.2     1  UNL1        0.2462
     16 O          63.1888   87.8449   12.6967 O.2     1  UNL1       -0.2701
     17 N          61.6378   89.3202   11.2244 N.am    1  UNL1       -0.2969
     18 H          61.4288   90.1885   10.8102 H       1  UNL1        0.1501
     19 C          60.7236   88.1496   11.0145 C.3     1  UNL1        0.1166
     20 C          60.9086   87.2577    9.8229 C.ar    1  UNL1       -0.0026
     21 C          62.2098   86.5402    9.6179 C.ar    1  UNL1       -0.0026
     22 C          62.3949   85.6482    8.4261 C.ar    1  UNL1       -0.0003
     23 C          61.2787   85.4738    7.4394 C.ar    1  UNL1       -0.0000
     24 C          59.9775   86.1912    7.6444 C.ar    1  UNL1       -0.0003
     25 C          59.7924   87.0832    8.8361 C.ar    1  UNL1       -0.0026
@<TRIPOS>BOND
     1     1     2    1
     2     2     3   ar
     3     3     4   ar
     4     4     5   ar
     5     5     6    1
     6     5     7   ar
     7     7     8   ar
     8     8    15    1
     9    15    16    2
    10    15    17   am
    11    17    19    1
    12    19    20    1
    13    20    21   ar
    14    21    22   ar
    15    22    23   ar
    16    23    24   ar
    17    24    25   ar
    18     8     9   ar
    19     9    10   ar
    20    10    11   ar
    21    11     2   ar
    22    10     4   ar
    23    25    20   ar
    24     1    12    1
    25     1    13    1
    26     6    14    1
    27    17    18    1
@<TRIPOS>MOLECULE
*****
 25 27 0 0 0
SMALL
GASTEIGER

@<TRIPOS>ATOM
      1 N          68.5977   92.3868   16.2674 N.pl3   1  UNL1       -0.3375
      2 C          67.6798   92.2807   15.0857 C.ar    1  UNL1        0.1568
      3 N          67.9304   92.8500   13.7207 N.ar    1  UNL1       -0.2214
      4 C          66.7557   92.5079   12.8529 C.ar    1  UNL1        0.1227
      5 C          66.4492   92.8064   11.4153 C.ar    1  UNL1        0.1518
      6 O          67.4259   93.5871   10.5866 O.3     1  UNL1       -0.5040
      7 C          65.1660   92.3243   10.8062 C.ar    1  UNL1        0.0427
      8 C          64.1893   91.5436   11.6349 C.ar    1  UNL1        0.0570
      9 C          64.4959   91.2451   13.0726 C.ar    1  UNL1        0.0128
     10 C          65.7791   91.7272   13.6816 C.ar    1  UNL1        0.0528
     11 S          66.3502   91.5868   15.0615 S.2     1  UNL1       -0.0519
     12 H          69.4540   92.8653   16.1841 H       1  UNL1        0.1442
     13 H          68.3437   91.9778   17.1262 H       1  UNL1        0.1442
     14 H          68.2275   93.8883   10.9671 H       1  UNL1        0.2923
     15 C          62.9061   91.0614   11.0259 C.2     1  UNL1        0.2462
     16 O          62.6743   91.2079    9.5511 O.2     1  UNL1       -0.2701
     17 N          61.8548   90.4328   11.8916 N.am    1  UNL1       -0.2969
     18 H          62.0070   90.3367   12.8595 H       1  UNL1        0.1501
     19 C          60.5716   89.9506   11.2826 C.3     1  UNL1        0.1166
     20 C          60.5672   88.7298   10.4111 C.ar    1  UNL1       -0.0026
     21 C          61.1284   87.4379   10.9271 C.ar    1  UNL1       -0.0026
     22 C          61.1240   86.2171   10.0555 C.ar    1  UNL1       -0.0003
     23 C          60.5584   86.2881    8.6680 C.ar    1  UNL1       -0.0000
     24 C          59.9972   87.5799    8.1521 C.ar    1  UNL1       -0.0003
     25 C          60.0015   88.8008    9.0236 C.ar    1  UNL1       -0.0026
@<TRIPOS>BOND
     1     1     2    1
     2     2     3   ar
     3     3     4   ar
     4     4     5   ar
     5     5     6    1
     6     5     7   ar
     7     7     8   ar
     8     8    15    1
     9    15    16    2
    10    15    17   am
    11    17    19    1
    12    19    20    1
    13    20    21   ar
    14    21    22   ar
    15    22    23   ar
    16    23    24   ar
    17    24    25   ar
    18     8     9   ar
    19     9    10   ar
    20    10    11   ar
    21    11     2   ar
    22    10     4   ar
    23    25    20   ar
    24     1    12    1
    25     1    13    1
    26     6    14    1
    27    17    18    1
@<TRIPOS>MOLECULE
*****
 25 27 0 0 0
SMALL
GASTEIGER

@<TRIPOS>ATOM
      1 N          67.5380   93.8798   15.6487 N.pl3   1  UNL1       -0.3375
      2 C          66.6256   93.1285   14.7251 C.ar    1  UNL1        0.1568
      3 N          66.3339   93.4791   13.2962 N.ar    1  UNL1       -0.2214
      4 C          65.3727   92.4619   12.7562 C.ar    1  UNL1        0.1227
      5 C          64.7337   92.3009   11.4087 C.ar    1  UNL1        0.1518
      6 O          65.0361   93.2802   10.3134 O.3     1  UNL1       -0.5040
      7 C          63.7924   91.1606   11.1565 C.ar    1  UNL1        0.0427
      8 C          63.4901   90.1813   12.2518 C.ar    1  UNL1        0.0570
      9 C          64.1291   90.3424   13.5993 C.ar    1  UNL1        0.0128
     10 C          65.0704   91.4827   13.8515 C.ar    1  UNL1        0.0528
     11 S          65.8447   91.8946   15.0683 S.2     1  UNL1       -0.0519
     12 H          68.0093   94.6830   15.3293 H       1  UNL1        0.1442
     13 H          67.6656   93.5698   16.5744 H       1  UNL1        0.1442
     14 H          65.6241   93.9925   10.4710 H       1  UNL1        0.2923
     15 C          62.5488   89.0410   11.9996 C.2     1  UNL1        0.2462
     16 O          61.0766   89.2982   11.8708 O.2     1  UNL1       -0.2701
     17 N          63.0796   87.6436   11.8762 N.am    1  UNL1       -0.2969
     18 H          64.0459   87.4748   11.9607 H       1  UNL1        0.1501
     19 C          62.1383   86.5032   11.6240 C.3     1  UNL1        0.1166
     20 C          62.6673   85.1037   11.5171 C.ar    1  UNL1       -0.0026
     21 C          62.6251   84.1929   12.7082 C.ar    1  UNL1       -0.0026
     22 C          63.1541   82.7933   12.6012 C.ar    1  UNL1       -0.0003
     23 C          63.7253   82.3045   11.3032 C.ar    1  UNL1       -0.0000
     24 C          63.7674   83.2153   10.1121 C.ar    1  UNL1       -0.0003
     25 C          63.2384   84.6148   10.2190 C.ar    1  UNL1       -0.0026
@<TRIPOS>BOND
     1     1     2    1
     2     2     3   ar
     3     3     4   ar
     4     4     5   ar
     5     5     6    1
     6     5     7   ar
     7     7     8   ar
     8     8    15    1
     9    15    16    2
    10    15    17   am
    11    17    19    1
    12    19    20    1
    13    20    21   ar
    14    21    22   ar
    15    22    23   ar
    16    23    24   ar
    17    24    25   ar
    18     8     9   ar
    19     9    10   ar
    20    10    11   ar
    21    11     2   ar
    22    10     4   ar
    23    25    20   ar
    24     1    12    1
    25     1    13    1
    26     6    14    1
    27    17    18    1
@<TRIPOS>MOLECULE
*****
 25 27 0 0 0
SMALL
GASTEIGER

@<TRIPOS>ATOM
      1 N          58.7805   87.0127    7.6722 N.pl3   1  UNL1       -0.3375
      2 C          59.7914   87.5400    8.6470 C.ar    1  UNL1        0.1568
      3 N          60.5324   86.7332    9.6717 N.ar    1  UNL1       -0.2214
      4 C          61.4376   87.6611   10.4263 C.ar    1  UNL1        0.1227
      5 C          62.4037   87.4276   11.5497 C.ar    1  UNL1        0.1518
      6 O          62.5852   86.0472   12.1080 O.3     1  UNL1       -0.5040
      7 C          63.1884   88.5743   12.1147 C.ar    1  UNL1        0.0427
      8 C          63.0070   89.9547   11.5564 C.ar    1  UNL1        0.0570
      9 C          62.0408   90.1882   10.4329 C.ar    1  UNL1        0.0128
     10 C          61.2562   89.0415    9.8679 C.ar    1  UNL1        0.0528
     11 S          60.2387   88.9666    8.7683 S.2     1  UNL1       -0.0519
     12 H          58.5520   86.0551    7.6697 H       1  UNL1        0.1442
     13 H          58.3457   87.6243    7.0349 H       1  UNL1        0.1442
     14 H          62.0951   85.3309   11.7551 H       1  UNL1        0.2923
     15 C          63.7916   91.1014   12.1214 C.2     1  UNL1        0.2462
     16 O          63.6790   91.4418   13.5779 O.2     1  UNL1       -0.2701
     17 N          64.6888   91.9077   11.2299 N.am    1  UNL1       -0.2969
     18 H          64.7627   91.6843   10.2739 H       1  UNL1        0.1501
     19 C          65.4735   93.0545   11.7949 C.3     1  UNL1        0.1166
     20 C          66.1345   94.0369   10.8740 C.ar    1  UNL1       -0.0026
     21 C          66.9061   93.5478    9.6843 C.ar    1  UNL1       -0.0026
     22 C          67.5670   94.5303    8.7635 C.ar    1  UNL1       -0.0003
     23 C          67.4564   96.0018    9.0324 C.ar    1  UNL1       -0.0000
     24 C          66.6848   96.4910   10.2221 C.ar    1  UNL1       -0.0003
     25 C          66.0238   95.5086   11.1429 C.ar    1  UNL1       -0.0026
@<TRIPOS>BOND
     1     1     2    1
     2     2     3   ar
     3     3     4   ar
     4     4     5   ar
     5     5     6    1
     6     5     7   ar
     7     7     8   ar
     8     8    15    1
     9    15    16    2
    10    15    17   am
    11    17    19    1
    12    19    20    1
    13    20    21   ar
    14    21    22   ar
    15    22    23   ar
    16    23    24   ar
    17    24    25   ar
    18     8     9   ar
    19     9    10   ar
    20    10    11   ar
    21    11     2   ar
    22    10     4   ar
    23    25    20   ar
    24     1    12    1
    25     1    13    1
    26     6    14    1
    27    17    18    1
@<TRIPOS>MOLECULE
*****
 25 27 0 0 0
SMALL
GASTEIGER

@<TRIPOS>ATOM
      1 N          66.1091   94.6385    9.5975 N.pl3   1  UNL1       -0.3375
      2 C          65.8668   93.7754   10.8001 C.ar    1  UNL1        0.1568
      3 N          66.4139   94.0083   12.1773 N.ar    1  UNL1       -0.2214
      4 C          65.9200   92.9047   13.0650 C.ar    1  UNL1        0.1227
      5 C          66.1363   92.6147   14.5207 C.ar    1  UNL1        0.1518
      6 O          66.9887   93.5296   15.3492 O.3     1  UNL1       -0.5040
      7 C          65.5003   91.4097   15.1481 C.ar    1  UNL1        0.0427
      8 C          64.6479   90.4947   14.3196 C.ar    1  UNL1        0.0570
      9 C          64.4316   90.7847   12.8638 C.ar    1  UNL1        0.0128
     10 C          65.0676   91.9897   12.2366 C.ar    1  UNL1        0.0528
     11 S          65.0348   92.5278   10.8368 S.2     1  UNL1       -0.0519
     12 H          66.6731   95.4418    9.6738 H       1  UNL1        0.1442
     13 H          65.7042   94.4017    8.7320 H       1  UNL1        0.1442
     14 H          67.3860   94.2823   14.9573 H       1  UNL1        0.2923
     15 C          64.0118   89.2898   14.9469 C.2     1  UNL1        0.2462
     16 O          62.8013   89.4487   15.8182 O.2     1  UNL1       -0.2701
     17 N          64.5864   87.9258   14.7028 N.am    1  UNL1       -0.2969
     18 H          65.3809   87.8215   14.1309 H       1  UNL1        0.1501
     19 C          63.9503   86.7208   15.3300 C.3     1  UNL1        0.1166
     20 C          63.7713   85.4650   14.5295 C.ar    1  UNL1       -0.0026
     21 C          63.4125   85.5472   13.0754 C.ar    1  UNL1       -0.0026
     22 C          63.2335   84.2913   12.2749 C.ar    1  UNL1       -0.0003
     23 C          63.4134   82.9532   12.9285 C.ar    1  UNL1       -0.0000
     24 C          63.7723   82.8710   14.3826 C.ar    1  UNL1       -0.0003
     25 C          63.9512   84.1269   15.1831 C.ar    1  UNL1       -0.0026
@<TRIPOS>BOND
     1     1     2    1
     2     2     3   ar
     3     3     4   ar
     4     4     5   ar
     5     5     6    1
     6     5     7   ar
     7     7     8   ar
     8     8    15    1
     9    15    16    2
    10    15    17   am
    11    17    19    1
    12    19    20    1
    13    20    21   ar
    14    21    22   ar
    15    22    23   ar
    16    23    24   ar
    17    24    25   ar
    18     8     9   ar
    19     9    10   ar
    20    10    11   ar
    21    11     2   ar
    22    10     4   ar
    23    25    20   ar
    24     1    12    1
    25     1    13    1
    26     6    14    1
    27    17    18    1
@<TRIPOS>MOLECULE
*****
 25 27 0 0 0
SMALL
GASTEIGER

@<TRIPOS>ATOM
      1 N          60.0738   85.5011    7.2422 N.pl3   1  UNL1       -0.3375
      2 C          60.5185   86.4375    8.3263 C.ar    1  UNL1        0.1568
      3 N          60.0428   87.8462    8.5246 N.ar    1  UNL1       -0.2214
      4 C          60.7473   88.4090    9.7234 C.ar    1  UNL1        0.1227
      5 C          60.6768   89.7503   10.3909 C.ar    1  UNL1        0.1518
      6 O          59.7657   90.8112    9.8483 O.3     1  UNL1       -0.5040
      7 C          61.5175   90.0309   11.6012 C.ar    1  UNL1        0.0427
      8 C          62.4286   88.9700   12.1438 C.ar    1  UNL1        0.0570
      9 C          62.4990   87.6286   11.4762 C.ar    1  UNL1        0.0128
     10 C          61.6583   87.3481   10.2660 C.ar    1  UNL1        0.0528
     11 S          61.5169   86.1297    9.4025 S.2     1  UNL1       -0.0519
     12 H          59.4100   85.7968    6.5780 H       1  UNL1        0.1442
     13 H          60.4457   84.5908    7.1948 H       1  UNL1        0.1442
     14 H          59.2406   90.6360    9.0923 H       1  UNL1        0.2923
     15 C          63.2692   89.2505   13.3540 C.2     1  UNL1        0.2462
     16 O          64.1282   88.1682   13.9378 O.2     1  UNL1       -0.2701
     17 N          63.2509   90.6133   13.9803 N.am    1  UNL1       -0.2969
     18 H          62.6872   91.3236   13.5972 H       1  UNL1        0.1501
     19 C          64.0916   90.8938   15.1906 C.3     1  UNL1        0.1166
     20 C          65.4264   91.5610   15.0383 C.ar    1  UNL1       -0.0026
     21 C          66.2013   91.4059   13.7634 C.ar    1  UNL1       -0.0026
     22 C          67.5362   92.0730   13.6112 C.ar    1  UNL1       -0.0003
     23 C          68.0961   92.8953   14.7339 C.ar    1  UNL1       -0.0000
     24 C          67.3211   93.0504   16.0088 C.ar    1  UNL1       -0.0003
     25 C          65.9863   92.3833   16.1610 C.ar    1  UNL1       -0.0026
@<TRIPOS>BOND
     1     1     2    1
     2     2     3   ar
     3     3     4   ar
     4     4     5   ar
     5     5     6    1
     6     5     7   ar
     7     7     8   ar
     8     8    15    1
     9    15    16    2
    10    15    17   am
    11    17    19    1
    12    19    20    1
    13    20    21   ar
    14    21    22   ar
    15    22    23   ar
    16    23    24   ar
    17    24    25   ar
    18     8     9   ar
    19     9    10   ar
    20    10    11   ar
    21    11     2   ar
    22    10     4   ar
    23    25    20   ar
    24     1    12    1
    25     1    13    1
    26     6    14    1
    27    17    18    1
@<TRIPOS>MOLECULE
*****
 25 27 0 0 0
SMALL
GASTEIGER

@<TRIPOS>ATOM
      1 N          58.8847   87.1660    7.5158 N.pl3   1  UNL1       -0.3375
      2 C          59.8714   87.6892    8.5172 C.ar    1  UNL1        0.1568
      3 N          60.5860   86.8786    9.5574 N.ar    1  UNL1       -0.2214
      4 C          61.4730   87.8033   10.3373 C.ar    1  UNL1        0.1227
      5 C          62.4107   87.5653   11.4835 C.ar    1  UNL1        0.1518
      6 O          62.5772   86.1831   12.0418 O.3     1  UNL1       -0.5040
      7 C          63.1819   88.7096   12.0717 C.ar    1  UNL1        0.0427
      8 C          63.0155   90.0919   11.5134 C.ar    1  UNL1        0.0570
      9 C          62.0777   90.3299   10.3670 C.ar    1  UNL1        0.0128
     10 C          61.3065   89.1856    9.7790 C.ar    1  UNL1        0.0528
     11 S          60.3167   89.1151    8.6542 S.2     1  UNL1       -0.0519
     12 H          58.6556   86.2086    7.5045 H       1  UNL1        0.1442
     13 H          58.4663   87.7800    6.8699 H       1  UNL1        0.1442
     14 H          62.0954   85.4683   11.6744 H       1  UNL1        0.2923
     15 C          63.7867   91.2362   12.1014 C.2     1  UNL1        0.2462
     16 O          63.6232   91.5844   13.5513 O.2     1  UNL1       -0.2701
     17 N          64.7213   92.0322   11.2397 N.am    1  UNL1       -0.2969
     18 H          64.8286   91.8036   10.2881 H       1  UNL1        0.1501
     19 C          65.4926   93.1765   11.8277 C.3     1  UNL1        0.1166
     20 C          66.5204   92.9211   12.8899 C.ar    1  UNL1       -0.0026
     21 C          66.4847   93.7005   14.1710 C.ar    1  UNL1       -0.0026
     22 C          67.5126   93.4450   15.2332 C.ar    1  UNL1       -0.0003
     23 C          68.5762   92.4102   15.0143 C.ar    1  UNL1       -0.0000
     24 C          68.6118   91.6308   13.7332 C.ar    1  UNL1       -0.0003
     25 C          67.5840   91.8862   12.6710 C.ar    1  UNL1       -0.0026
@<TRIPOS>BOND
     1     1     2    1
     2     2     3   ar
     3     3     4   ar
     4     4     5   ar
     5     5     6    1
     6     5     7   ar
     7     7     8   ar
     8     8    15    1
     9    15    16    2
    10    15    17   am
    11    17    19    1
    12    19    20    1
    13    20    21   ar
    14    21    22   ar
    15    22    23   ar
    16    23    24   ar
    17    24    25   ar
    18     8     9   ar
    19     9    10   ar
    20    10    11   ar
    21    11     2   ar
    22    10     4   ar
    23    25    20   ar
    24     1    12    1
    25     1    13    1
    26     6    14    1
    27    17    18    1
@<TRIPOS>MOLECULE
*****
 25 27 0 0 0
SMALL
GASTEIGER

@<TRIPOS>ATOM
      1 N          63.8098   82.3751   14.0472 N.pl3   1  UNL1       -0.3375
      2 C          63.7447   83.7812   14.5654 C.ar    1  UNL1        0.1568
      3 N          63.1118   84.2178   15.8534 N.ar    1  UNL1       -0.2214
      4 C          63.2770   85.7040   15.9707 C.ar    1  UNL1        0.1227
      5 C          62.8531   86.6807   17.0273 C.ar    1  UNL1        0.1518
      6 O          62.1181   86.1987   18.2428 O.3     1  UNL1       -0.5040
      7 C          63.1642   88.1395   16.8684 C.ar    1  UNL1        0.0427
      8 C          63.8992   88.6216   15.6529 C.ar    1  UNL1        0.0570
      9 C          64.3231   87.6448   14.5963 C.ar    1  UNL1        0.0128
     10 C          64.0120   86.1861   14.7552 C.ar    1  UNL1        0.0528
     11 S          64.3010   84.9977   13.8867 S.2     1  UNL1       -0.0519
     12 H          63.4134   81.6397   14.5680 H       1  UNL1        0.1442
     13 H          64.2489   82.1876   13.1862 H       1  UNL1        0.1442
     14 H          61.9238   85.2875   18.3420 H       1  UNL1        0.2923
     15 C          64.2103   90.0803   15.4939 C.2     1  UNL1        0.2462
     16 O          63.3684   91.1071   16.1917 O.2     1  UNL1       -0.2701
     17 N          65.3633   90.5122   14.6372 N.am    1  UNL1       -0.2969
     18 H          65.9159   89.8382   14.1793 H       1  UNL1        0.1501
     19 C          65.6745   91.9710   14.4783 C.3     1  UNL1        0.1166
     20 C          65.6558   92.5977   13.1156 C.ar    1  UNL1       -0.0026
     21 C          64.9139   91.9326   11.9943 C.ar    1  UNL1       -0.0026
     22 C          64.8952   92.5594   10.6316 C.ar    1  UNL1       -0.0003
     23 C          65.6184   93.8512   10.3903 C.ar    1  UNL1       -0.0000
     24 C          66.3602   94.5162   11.5116 C.ar    1  UNL1       -0.0003
     25 C          66.3790   93.8895   12.8742 C.ar    1  UNL1       -0.0026
@<TRIPOS>BOND
     1     1     2    1
     2     2     3   ar
     3     3     4   ar
     4     4     5   ar
     5     5     6    1
     6     5     7   ar
     7     7     8   ar
     8     8    15    1
     9    15    16    2
    10    15    17   am
    11    17    19    1
    12    19    20    1
    13    20    21   ar
    14    21    22   ar
    15    22    23   ar
    16    23    24   ar
    17    24    25   ar
    18     8     9   ar
    19     9    10   ar
    20    10    11   ar
    21    11     2   ar
    22    10     4   ar
    23    25    20   ar
    24     1    12    1
    25     1    13    1
    26     6    14    1
    27    17    18    1
