@<TRIPOS>MOLECULE
*****
 45 49 0 0 0
SMALL
GASTEIGER

@<TRIPOS>ATOM
      1 C          64.2432   89.6806   13.7266 C.2     1  UNL1        0.3851
      2 N          65.4274   90.3904   14.3129 N.am    1  UNL1        0.0007
      3 N          63.0935   90.4700   13.1742 N.pl3   1  UNL1       -0.2438
      4 H          62.9252   91.3852   13.4956 H       1  UNL1        0.2647
      5 C          60.4558   85.7196    7.5086 C.3     1  UNL1        0.0725
      6 C          60.7057   86.7593    8.5604 C.ar    1  UNL1        0.1233
      7 C          61.9478   86.8926    9.3909 C.ar    1  UNL1        0.0361
      8 C          61.7672   88.0640   10.3103 C.ar    1  UNL1        0.0400
      9 C          62.6605   88.6690   11.3523 C.ar    1  UNL1        0.0365
     10 C          62.2002   89.8648   12.1321 C.ar    1  UNL1        0.1168
     11 C          60.8466   90.4556   11.8699 C.ar    1  UNL1        0.0365
     12 C          59.9533   89.8505   10.8278 C.ar    1  UNL1        0.0404
     13 C          60.4136   88.6547   10.0480 C.ar    1  UNL1        0.1450
     14 O          59.7576   87.8484    8.9666 O.2     1  UNL1       -0.4577
     15 C          65.4620   91.8897   14.3468 C.2     1  UNL1        0.3433
     16 O          65.1414   92.6186   15.6180 O.2     1  UNL1       -0.2483
     17 C          65.8170   92.6599   13.1097 C.ar    1  UNL1        0.0919
     18 C          65.5918   92.0518   11.7571 C.ar    1  UNL1        0.0094
     19 C          65.9469   92.8220   10.5199 C.ar    1  UNL1        0.0240
     20 C          66.5272   94.2004   10.6353 C.ar    1  UNL1        0.1347
     21 N          66.7524   94.8086   11.9879 N.ar    1  UNL1       -0.2390
     22 C          66.3973   94.0383   13.2251 C.ar    1  UNL1        0.1051
     23 C          66.8822   94.9707    9.3981 C.2     1  UNL1        0.2669
     24 O          68.1239   94.6258    8.6305 O.2     1  UNL1       -0.2683
     25 N          65.9956   96.0858    8.9286 N.am    1  UNL1       -0.2713
     26 C          66.3507   96.8560    7.6914 C.3     1  UNL1        0.1153
     27 C          64.7540   96.4306    9.6962 C.3     1  UNL1        0.1153
     28 N          64.2087   88.1813   13.6926 N.pl3   1  UNL1       -0.2585
     29 H          64.4643   87.7015   12.8718 H       1  UNL1        0.2589
     30 C          63.7847   87.4132   14.9093 C.3     1  UNL1        0.2142
     31 C          63.2996   88.2388   16.0638 C.3     1  UNL1        0.0490
     32 C          62.8118   87.7761   17.4048 C.3     1  UNL1        0.0057
     33 C          62.6888   86.3735   17.9223 C.3     1  UNL1        0.0216
     34 C          63.0230   85.0873   17.2267 C.3     1  UNL1        0.0940
     35 N          63.5629   84.8860   15.8418 N.am    1  UNL1       -0.2686
     36 C          63.9019   85.9211   14.8104 C.2     1  UNL1        0.2622
     37 O          64.4276   85.3943   13.5080 O.2     1  UNL1       -0.2712
     38 C          63.7945   83.4610   15.4343 C.3     1  UNL1        0.1794
     39 C          62.8329   82.7809   14.5054 C.2     1  UNL1        0.2459
     40 O          61.4755   82.3743   14.9972 O.2     1  UNL1       -0.2730
     41 N          63.2289   82.5076   13.0847 N.am    1  UNL1       -0.2781
     42 C          64.5448   82.8545   12.4537 C.3     1  UNL1        0.0935
     43 C          64.5077   82.4006   11.0246 C.3     1  UNL1        0.0233
     44 C          63.1688   81.7731   10.7722 C.3     1  UNL1        0.0233
     45 C          62.3785   81.8393   12.0454 C.3     1  UNL1        0.0935
@<TRIPOS>BOND
     1     5     6    1
     2     6     7   ar
     3     7     8   ar
     4     8     9   ar
     5     9    10   ar
     6    10     3    1
     7     3     1    1
     8     1     2    2
     9     2    15    1
    10    15    16    2
    11    15    17    1
    12    17    18   ar
    13    18    19   ar
    14    19    20   ar
    15    20    23    1
    16    23    24    2
    17    23    25   am
    18    25    26    1
    19    25    27    1
    20    20    21   ar
    21    21    22   ar
    22     1    28    1
    23    30    28    1
    24    30    31    1
    25    31    32    1
    26    32    33    1
    27    33    34    1
    28    34    35    1
    29    35    38    1
    30    38    39    1
    31    39    40    2
    32    39    41   am
    33    41    42    1
    34    42    43    1
    35    43    44    1
    36    44    45    1
    37    35    36   am
    38    36    37    2
    39    10    11   ar
    40    11    12   ar
    41    12    13   ar
    42    13    14   ar
    43    14     6   ar
    44    13     8   ar
    45    22    17   ar
    46    36    30    1
    47    45    41    1
    48     3     4    1
    49    28    29    1
@<TRIPOS>MOLECULE
*****
 45 49 0 0 0
SMALL
GASTEIGER

@<TRIPOS>ATOM
      1 C          62.7100   90.0273   13.2691 C.2     1  UNL1        0.3851
      2 N          61.2288   89.7967   13.3216 N.am    1  UNL1        0.0007
      3 N          63.3659   90.3973   11.9718 N.pl3   1  UNL1       -0.2438
      4 H          63.1685   89.8827   11.1561 H       1  UNL1        0.2647
      5 C          67.4507   96.5322    9.2698 C.3     1  UNL1        0.0725
      6 C          66.8129   95.4083   10.0315 C.ar    1  UNL1        0.1233
      7 C          65.7839   94.4552    9.4998 C.ar    1  UNL1        0.0361
      8 C          65.4272   93.4980   10.5983 C.ar    1  UNL1        0.0400
      9 C          64.4705   92.3439   10.6526 C.ar    1  UNL1        0.0365
     10 C          64.3225   91.5514   11.9175 C.ar    1  UNL1        0.1168
     11 C          65.1311   91.9129   13.1280 C.ar    1  UNL1        0.0365
     12 C          66.0878   93.0670   13.0737 C.ar    1  UNL1        0.0404
     13 C          66.2358   93.8595   11.8088 C.ar    1  UNL1        0.1450
     14 O          67.0922   95.0401   11.4585 O.2     1  UNL1       -0.4577
     15 C          60.4034   89.9361   12.0768 C.2     1  UNL1        0.3433
     16 O          59.4731   91.1023   11.9205 O.2     1  UNL1       -0.2483
     17 C          60.5083   88.9092   10.9885 C.ar    1  UNL1        0.0919
     18 C          60.2776   89.3041    9.5599 C.ar    1  UNL1        0.0094
     19 C          60.3825   88.2773    8.4716 C.ar    1  UNL1        0.0240
     20 C          60.7181   86.8554    8.8118 C.ar    1  UNL1        0.1347
     21 N          60.9488   86.4604   10.2404 N.ar    1  UNL1       -0.2390
     22 C          60.8439   87.4874   11.3288 C.ar    1  UNL1        0.1051
     23 C          60.8230   85.8285    7.7235 C.2     1  UNL1        0.2669
     24 O          59.6074   85.4488    6.9310 O.2     1  UNL1       -0.2683
     25 N          62.1435   85.1814    7.4277 N.am    1  UNL1       -0.2713
     26 C          62.2484   84.1545    6.3394 C.3     1  UNL1        0.1153
     27 C          63.3591   85.5611    8.2202 C.3     1  UNL1        0.1153
     28 N          63.5353   89.8879   14.5139 N.pl3   1  UNL1       -0.2585
     29 H          64.1345   90.6181   14.7915 H       1  UNL1        0.2589
     30 C          63.4478   88.6361   15.3355 C.3     1  UNL1        0.2142
     31 C          62.9912   88.8184   16.7527 C.3     1  UNL1        0.0490
     32 C          62.8025   87.7771   17.8158 C.3     1  UNL1        0.0057
     33 C          63.0237   86.2963   17.7242 C.3     1  UNL1        0.0216
     34 C          63.4882   85.4911   16.5470 C.3     1  UNL1        0.0940
     35 N          63.8463   85.9679   15.1706 N.am    1  UNL1       -0.2686
     36 C          63.8283   87.3675   14.6314 C.2     1  UNL1        0.2622
     37 O          64.2461   87.5185   13.1987 O.2     1  UNL1       -0.2712
     38 C          64.2797   84.9043   14.2057 C.3     1  UNL1        0.1794
     39 C          63.3756   83.7437   13.9130 C.2     1  UNL1        0.2459
     40 O          62.3783   83.2926   14.9385 O.2     1  UNL1       -0.2730
     41 N          63.4689   83.0343   12.5946 N.am    1  UNL1       -0.2781
     42 C          64.4118   83.3701   11.4774 C.3     1  UNL1        0.0935
     43 C          64.1612   82.4079   10.3544 C.3     1  UNL1        0.0233
     44 C          63.0634   81.4773   10.7775 C.3     1  UNL1        0.0233
     45 C          62.6356   81.8645   12.1620 C.3     1  UNL1        0.0935
@<TRIPOS>BOND
     1     5     6    1
     2     6     7   ar
     3     7     8   ar
     4     8     9   ar
     5     9    10   ar
     6    10     3    1
     7     3     1    1
     8     1     2    2
     9     2    15    1
    10    15    16    2
    11    15    17    1
    12    17    18   ar
    13    18    19   ar
    14    19    20   ar
    15    20    23    1
    16    23    24    2
    17    23    25   am
    18    25    26    1
    19    25    27    1
    20    20    21   ar
    21    21    22   ar
    22     1    28    1
    23    30    28    1
    24    30    31    1
    25    31    32    1
    26    32    33    1
    27    33    34    1
    28    34    35    1
    29    35    38    1
    30    38    39    1
    31    39    40    2
    32    39    41   am
    33    41    42    1
    34    42    43    1
    35    43    44    1
    36    44    45    1
    37    35    36   am
    38    36    37    2
    39    10    11   ar
    40    11    12   ar
    41    12    13   ar
    42    13    14   ar
    43    14     6   ar
    44    13     8   ar
    45    22    17   ar
    46    36    30    1
    47    45    41    1
    48     3     4    1
    49    28    29    1
@<TRIPOS>MOLECULE
*****
 45 49 0 0 0
SMALL
GASTEIGER

@<TRIPOS>ATOM
      1 C          60.5223   88.6322    9.1449 C.2     1  UNL1        0.3851
      2 N          59.9476   89.7162    8.2821 N.am    1  UNL1        0.0007
      3 N          60.6819   87.2443    8.5987 N.pl3   1  UNL1       -0.2438
      4 H          60.1965   86.9766    7.7851 H       1  UNL1        0.2647
      5 C          64.0325   82.9655   14.2634 C.3     1  UNL1        0.0725
      6 C          63.5767   83.6465   13.0070 C.ar    1  UNL1        0.1233
      7 C          62.4925   84.6783   12.9070 C.ar    1  UNL1        0.0361
      8 C          62.3707   85.0847   11.4683 C.ar    1  UNL1        0.0400
      9 C          61.4715   86.0648   10.7748 C.ar    1  UNL1        0.0365
     10 C          61.5812   86.2642    9.2922 C.ar    1  UNL1        0.1168
     11 C          62.5901   85.4837    8.5031 C.ar    1  UNL1        0.0365
     12 C          63.4893   84.5036    9.1965 C.ar    1  UNL1        0.0404
     13 C          63.3796   84.3042   10.6791 C.ar    1  UNL1        0.1450
     14 O          64.1249   83.4153   11.6301 O.2     1  UNL1       -0.4577
     15 C          59.5324   89.4124    6.8730 C.2     1  UNL1        0.3433
     16 O          58.9790   88.0614    6.5290 O.2     1  UNL1       -0.2483
     17 C          59.6708   90.4596    5.8080 C.ar    1  UNL1        0.0919
     18 C          61.0110   90.7287    5.1904 C.ar    1  UNL1        0.0094
     19 C          61.1493   91.7759    4.1254 C.ar    1  UNL1        0.0240
     20 C          59.9474   92.5541    3.6780 C.ar    1  UNL1        0.1347
     21 N          58.6073   92.2850    4.2957 N.ar    1  UNL1       -0.2390
     22 C          58.4690   91.2377    5.3607 C.ar    1  UNL1        0.1051
     23 C          60.0858   93.6012    2.6131 C.2     1  UNL1        0.2669
     24 O          59.9922   95.0543    2.9734 O.2     1  UNL1       -0.2683
     25 N          60.3177   93.1954    1.1878 N.am    1  UNL1       -0.2713
     26 C          60.4560   94.2426    0.1228 C.3     1  UNL1        0.1153
     27 C          60.4112   91.7424    0.8274 C.3     1  UNL1        0.1153
     28 N          60.9375   88.9360   10.5540 N.pl3   1  UNL1       -0.2585
     29 H          60.4531   88.5292   11.3084 H       1  UNL1        0.2589
     30 C          62.0906   89.8596   10.8135 C.3     1  UNL1        0.2142
     31 C          62.4102   90.8269    9.7124 C.3     1  UNL1        0.0490
     32 C          63.4898   91.8672    9.6657 C.3     1  UNL1        0.0057
     33 C          64.5163   92.1973   10.7085 C.3     1  UNL1        0.0216
     34 C          64.7168   91.5685   12.0555 C.3     1  UNL1        0.0940
     35 N          63.9402   90.4544   12.6924 N.am    1  UNL1       -0.2686
     36 C          62.7715   89.6939   12.1397 C.2     1  UNL1        0.2622
     37 O          62.2093   88.6264   13.0311 O.2     1  UNL1       -0.2712
     38 C          64.3923   90.0469   14.0634 C.3     1  UNL1        0.1794
     39 C          64.6407   91.0902   15.1121 C.2     1  UNL1        0.2459
     40 O          63.5354   91.4988   16.0402 O.2     1  UNL1       -0.2730
     41 N          65.9944   91.7249   15.2327 N.am    1  UNL1       -0.2781
     42 C          67.1904   91.4198   14.3803 C.3     1  UNL1        0.0935
     43 C          68.3250   92.2825   14.8477 C.3     1  UNL1        0.0233
     44 C          67.8303   93.1208   15.9890 C.3     1  UNL1        0.0233
     45 C          66.3899   92.7761   16.2269 C.3     1  UNL1        0.0935
@<TRIPOS>BOND
     1     5     6    1
     2     6     7   ar
     3     7     8   ar
     4     8     9   ar
     5     9    10   ar
     6    10     3    1
     7     3     1    1
     8     1     2    2
     9     2    15    1
    10    15    16    2
    11    15    17    1
    12    17    18   ar
    13    18    19   ar
    14    19    20   ar
    15    20    23    1
    16    23    24    2
    17    23    25   am
    18    25    26    1
    19    25    27    1
    20    20    21   ar
    21    21    22   ar
    22     1    28    1
    23    30    28    1
    24    30    31    1
    25    31    32    1
    26    32    33    1
    27    33    34    1
    28    34    35    1
    29    35    38    1
    30    38    39    1
    31    39    40    2
    32    39    41   am
    33    41    42    1
    34    42    43    1
    35    43    44    1
    36    44    45    1
    37    35    36   am
    38    36    37    2
    39    10    11   ar
    40    11    12   ar
    41    12    13   ar
    42    13    14   ar
    43    14     6   ar
    44    13     8   ar
    45    22    17   ar
    46    36    30    1
    47    45    41    1
    48     3     4    1
    49    28    29    1
@<TRIPOS>MOLECULE
*****
 45 49 0 0 0
SMALL
GASTEIGER

@<TRIPOS>ATOM
      1 C          63.2349   88.5088   14.8294 C.2     1  UNL1        0.3851
      2 N          62.9907   88.1903   16.2747 N.am    1  UNL1        0.0007
      3 N          63.7383   87.4434   13.9013 N.pl3   1  UNL1       -0.2438
      4 H          64.5477   86.9324   14.1313 H       1  UNL1        0.2647
      5 C          59.3200   88.4456    7.4905 C.3     1  UNL1        0.0725
      6 C          60.1889   87.9827    8.6223 C.ar    1  UNL1        0.1233
      7 C          60.6631   88.8233    9.7705 C.ar    1  UNL1        0.0361
      8 C          61.5034   87.9582   10.6624 C.ar    1  UNL1        0.0400
      9 C          62.2333   88.2450   11.9410 C.ar    1  UNL1        0.0365
     10 C          63.0083   87.1566   12.6226 C.ar    1  UNL1        0.1168
     11 C          63.0533   85.7812   12.0256 C.ar    1  UNL1        0.0365
     12 C          62.3234   85.4944   10.7470 C.ar    1  UNL1        0.0404
     13 C          61.5484   86.5828   10.0654 C.ar    1  UNL1        0.1450
     14 O          60.7360   86.5980    8.8045 O.2     1  UNL1       -0.4577
     15 C          63.2498   86.8063   16.7919 C.2     1  UNL1        0.3433
     16 O          63.4146   86.5746   18.2647 O.2     1  UNL1       -0.2483
     17 C          63.3442   85.6540   15.8363 C.ar    1  UNL1        0.0919
     18 C          64.6819   85.2197   15.3148 C.ar    1  UNL1        0.0094
     19 C          64.7762   84.0674   14.3591 C.ar    1  UNL1        0.0240
     20 C          63.5328   83.3493   13.9250 C.ar    1  UNL1        0.1347
     21 N          62.1951   83.7836   14.4464 N.ar    1  UNL1       -0.2390
     22 C          62.1008   84.9360   15.4021 C.ar    1  UNL1        0.1051
     23 C          63.6271   82.1970   12.9693 C.2     1  UNL1        0.2669
     24 O          64.6842   82.1898   11.9052 O.2     1  UNL1       -0.2683
     25 N          62.6643   81.0519   13.0778 N.am    1  UNL1       -0.2713
     26 C          62.7587   79.8996   12.1222 C.3     1  UNL1        0.1153
     27 C          61.6072   81.0591   14.1420 C.3     1  UNL1        0.1153
     28 N          62.9758   89.8929   14.3123 N.pl3   1  UNL1       -0.2585
     29 H          62.0592   90.1688   14.0822 H       1  UNL1        0.2589
     30 C          64.1132   90.8564   14.1456 C.3     1  UNL1        0.2142
     31 C          64.7798   91.3019   15.4134 C.3     1  UNL1        0.0490
     32 C          65.9315   92.2481   15.5820 C.3     1  UNL1        0.0057
     33 C          66.7010   92.9825   14.5243 C.3     1  UNL1        0.0216
     34 C          66.5090   92.9520   13.0370 C.3     1  UNL1        0.0940
     35 N          65.4999   92.1797   12.2399 N.am    1  UNL1       -0.2686
     36 C          64.4337   91.2470   12.7334 C.2     1  UNL1        0.2622
     37 O          63.5743   90.6225   11.6743 O.2     1  UNL1       -0.2712
     38 C          65.5657   92.3644   10.7528 C.3     1  UNL1        0.1794
     39 C          66.7313   93.0800   10.1369 C.2     1  UNL1        0.2459
     40 O          67.9627   92.3151    9.7518 O.2     1  UNL1       -0.2730
     41 N          66.6653   94.5607    9.9061 N.am    1  UNL1       -0.2781
     42 C          65.5069   95.4541   10.2379 C.3     1  UNL1        0.0935
     43 C          65.8718   96.8534    9.8398 C.3     1  UNL1        0.0233
     44 C          67.2558   96.8250    9.2619 C.3     1  UNL1        0.0233
     45 C          67.7461   95.4080    9.3029 C.3     1  UNL1        0.0935
@<TRIPOS>BOND
     1     5     6    1
     2     6     7   ar
     3     7     8   ar
     4     8     9   ar
     5     9    10   ar
     6    10     3    1
     7     3     1    1
     8     1     2    2
     9     2    15    1
    10    15    16    2
    11    15    17    1
    12    17    18   ar
    13    18    19   ar
    14    19    20   ar
    15    20    23    1
    16    23    24    2
    17    23    25   am
    18    25    26    1
    19    25    27    1
    20    20    21   ar
    21    21    22   ar
    22     1    28    1
    23    30    28    1
    24    30    31    1
    25    31    32    1
    26    32    33    1
    27    33    34    1
    28    34    35    1
    29    35    38    1
    30    38    39    1
    31    39    40    2
    32    39    41   am
    33    41    42    1
    34    42    43    1
    35    43    44    1
    36    44    45    1
    37    35    36   am
    38    36    37    2
    39    10    11   ar
    40    11    12   ar
    41    12    13   ar
    42    13    14   ar
    43    14     6   ar
    44    13     8   ar
    45    22    17   ar
    46    36    30    1
    47    45    41    1
    48     3     4    1
    49    28    29    1
@<TRIPOS>MOLECULE
*****
 45 49 0 0 0
SMALL
GASTEIGER

@<TRIPOS>ATOM
      1 C          62.3359   90.1042   13.6029 C.2     1  UNL1        0.3851
      2 N          60.9269   89.6206   13.4274 N.am    1  UNL1        0.0007
      3 N          63.0459   90.7749   12.4645 N.pl3   1  UNL1       -0.2438
      4 H          62.6265   90.8091   11.5744 H       1  UNL1        0.2647
      5 C          69.6516   93.1269   15.9938 C.3     1  UNL1        0.0725
      6 C          68.5039   92.7996   15.0851 C.ar    1  UNL1        0.1233
      7 C          67.2548   92.0646   15.4720 C.ar    1  UNL1        0.0361
      8 C          66.3827   91.9606   14.2560 C.ar    1  UNL1        0.0400
      9 C          65.0338   91.3418   14.0383 C.ar    1  UNL1        0.0365
     10 C          64.3949   91.3938   12.6822 C.ar    1  UNL1        0.1168
     11 C          65.1049   92.0645   11.5438 C.ar    1  UNL1        0.0365
     12 C          66.4538   92.6833   11.7615 C.ar    1  UNL1        0.0404
     13 C          67.0927   92.6314   13.1176 C.ar    1  UNL1        0.1450
     14 O          68.4037   93.1499   13.6301 O.2     1  UNL1       -0.4577
     15 C          60.2278   89.8078   12.1134 C.2     1  UNL1        0.3433
     16 O          59.3538   91.0068   11.8931 O.2     1  UNL1       -0.2483
     17 C          60.4028   88.7961   11.0200 C.ar    1  UNL1        0.0919
     18 C          60.8174   87.3940   11.3548 C.ar    1  UNL1        0.0094
     19 C          60.9924   86.3822   10.2613 C.ar    1  UNL1        0.0240
     20 C          60.7528   86.7726    8.8329 C.ar    1  UNL1        0.1347
     21 N          60.3382   88.1748    8.4981 N.ar    1  UNL1       -0.2390
     22 C          60.1632   89.1865    9.5916 C.ar    1  UNL1        0.1051
     23 C          60.9278   85.7609    7.7394 C.2     1  UNL1        0.2669
     24 O          59.7387   85.2913    6.9549 O.2     1  UNL1       -0.2683
     25 N          62.2919   85.2189    7.4304 N.am    1  UNL1       -0.2713
     26 C          62.4669   84.2072    6.3369 C.3     1  UNL1        0.1153
     27 C          63.4809   85.6885    8.2149 C.3     1  UNL1        0.1153
     28 N          63.0349   89.9170   14.9168 N.pl3   1  UNL1       -0.2585
     29 H          63.4561   90.6861   15.3643 H       1  UNL1        0.2589
     30 C          63.0922   88.5578   15.5489 C.3     1  UNL1        0.2142
     31 C          62.6706   88.4905   16.9868 C.3     1  UNL1        0.0490
     32 C          62.6162   87.2945   17.8905 C.3     1  UNL1        0.0057
     33 C          62.9700   85.8704   17.5793 C.3     1  UNL1        0.0216
     34 C          63.4656   85.2906   16.2877 C.3     1  UNL1        0.0940
     35 N          63.7297   85.9917   14.9882 N.am    1  UNL1       -0.2686
     36 C          63.5636   87.4458   14.6594 C.2     1  UNL1        0.2622
     37 O          63.9153   87.8399   13.2555 O.2     1  UNL1       -0.2712
     38 C          64.2256   85.1240   13.8697 C.3     1  UNL1        0.1794
     39 C          63.8223   83.6808   13.8048 C.2     1  UNL1        0.2459
     40 O          63.5135   82.9309   15.0666 O.2     1  UNL1       -0.2730
     41 N          63.7279   82.9874   12.4780 N.am    1  UNL1       -0.2781
     42 C          64.0050   83.6042   11.1391 C.3     1  UNL1        0.0935
     43 C          63.7882   82.5534   10.0909 C.3     1  UNL1        0.0233
     44 C          63.3770   81.2872   10.7819 C.3     1  UNL1        0.0233
     45 C          63.3398   81.5554   12.2572 C.3     1  UNL1        0.0935
@<TRIPOS>BOND
     1     5     6    1
     2     6     7   ar
     3     7     8   ar
     4     8     9   ar
     5     9    10   ar
     6    10     3    1
     7     3     1    1
     8     1     2    2
     9     2    15    1
    10    15    16    2
    11    15    17    1
    12    17    18   ar
    13    18    19   ar
    14    19    20   ar
    15    20    23    1
    16    23    24    2
    17    23    25   am
    18    25    26    1
    19    25    27    1
    20    20    21   ar
    21    21    22   ar
    22     1    28    1
    23    30    28    1
    24    30    31    1
    25    31    32    1
    26    32    33    1
    27    33    34    1
    28    34    35    1
    29    35    38    1
    30    38    39    1
    31    39    40    2
    32    39    41   am
    33    41    42    1
    34    42    43    1
    35    43    44    1
    36    44    45    1
    37    35    36   am
    38    36    37    2
    39    10    11   ar
    40    11    12   ar
    41    12    13   ar
    42    13    14   ar
    43    14     6   ar
    44    13     8   ar
    45    22    17   ar
    46    36    30    1
    47    45    41    1
    48     3     4    1
    49    28    29    1
@<TRIPOS>MOLECULE
*****
 45 49 0 0 0
SMALL
GASTEIGER

@<TRIPOS>ATOM
      1 C          60.3824   88.6188    9.2008 C.2     1  UNL1        0.3851
      2 N          59.9857   89.7157    8.2578 N.am    1  UNL1        0.0007
      3 N          60.4106   87.1959    8.7270 N.pl3   1  UNL1       -0.2438
      4 H          59.7735   86.8930    8.0403 H       1  UNL1        0.2647
      5 C          64.3149   82.7349   13.8728 C.3     1  UNL1        0.0725
      6 C          63.7551   83.4803   12.6977 C.ar    1  UNL1        0.1233
      7 C          62.5940   84.4296   12.7275 C.ar    1  UNL1        0.0361
      8 C          62.3793   84.9433   11.3347 C.ar    1  UNL1        0.0400
      9 C          61.3803   85.9048   10.7623 C.ar    1  UNL1        0.0365
     10 C          61.4097   86.2344    9.2994 C.ar    1  UNL1        0.1168
     11 C          62.4381   85.6027    8.4087 C.ar    1  UNL1        0.0365
     12 C          63.4371   84.6413    8.9810 C.ar    1  UNL1        0.0404
     13 C          63.4077   84.3116   10.4440 C.ar    1  UNL1        0.1450
     14 O          64.2579   83.4074   11.2864 O.2     1  UNL1       -0.4577
     15 C          59.6171   89.3896    6.8407 C.2     1  UNL1        0.3433
     16 O          59.1180   88.0188    6.4920 O.2     1  UNL1       -0.2483
     17 C          59.7477   90.4345    5.7724 C.ar    1  UNL1        0.0919
     18 C          58.5327   91.1706    5.2908 C.ar    1  UNL1        0.0094
     19 C          58.6633   92.2154    4.2225 C.ar    1  UNL1        0.0240
     20 C          60.0089   92.5242    3.6359 C.ar    1  UNL1        0.1347
     21 N          61.2239   91.7881    4.1175 N.ar    1  UNL1       -0.2390
     22 C          61.0932   90.7432    5.1858 C.ar    1  UNL1        0.1051
     23 C          60.1395   93.5690    2.5676 C.2     1  UNL1        0.2669
     24 O          59.9773   95.0195    2.9134 O.2     1  UNL1       -0.2683
     25 N          60.4322   93.1633    1.1535 N.am    1  UNL1       -0.2713
     26 C          60.5628   94.2082    0.0852 C.3     1  UNL1        0.1153
     27 C          60.5944   91.7128    0.8076 C.3     1  UNL1        0.1153
     28 N          60.7510   88.9448   10.6179 N.pl3   1  UNL1       -0.2585
     29 H          60.1940   88.6151   11.3597 H       1  UNL1        0.2589
     30 C          61.9682   89.7732   10.9046 C.3     1  UNL1        0.2142
     31 C          62.2404   90.8866    9.9369 C.3     1  UNL1        0.0490
     32 C          63.3638   91.8805    9.9467 C.3     1  UNL1        0.0057
     33 C          64.4926   92.0065   10.9267 C.3     1  UNL1        0.0216
     34 C          64.7766   91.1697   12.1388 C.3     1  UNL1        0.0940
     35 N          64.0020   90.0003   12.6703 N.am    1  UNL1       -0.2686
     36 C          62.7521   89.3788   12.1210 C.2     1  UNL1        0.2622
     37 O          62.2153   88.2080   12.8900 O.2     1  UNL1       -0.2712
     38 C          64.5497   89.3688   13.9158 C.3     1  UNL1        0.1794
     39 C          63.7717   89.4384   15.1964 C.2     1  UNL1        0.2459
     40 O          63.2525   90.7570   15.6878 O.2     1  UNL1       -0.2730
     41 N          63.5131   88.1893   15.9855 N.am    1  UNL1       -0.2781
     42 C          63.9670   86.8066   15.6218 C.3     1  UNL1        0.0935
     43 C          63.4895   85.8664   16.6884 C.3     1  UNL1        0.0233
     44 C          62.7405   86.6678   17.7115 C.3     1  UNL1        0.0233
     45 C          62.7551   88.1035   17.2771 C.3     1  UNL1        0.0935
@<TRIPOS>BOND
     1     5     6    1
     2     6     7   ar
     3     7     8   ar
     4     8     9   ar
     5     9    10   ar
     6    10     3    1
     7     3     1    1
     8     1     2    2
     9     2    15    1
    10    15    16    2
    11    15    17    1
    12    17    18   ar
    13    18    19   ar
    14    19    20   ar
    15    20    23    1
    16    23    24    2
    17    23    25   am
    18    25    26    1
    19    25    27    1
    20    20    21   ar
    21    21    22   ar
    22     1    28    1
    23    30    28    1
    24    30    31    1
    25    31    32    1
    26    32    33    1
    27    33    34    1
    28    34    35    1
    29    35    38    1
    30    38    39    1
    31    39    40    2
    32    39    41   am
    33    41    42    1
    34    42    43    1
    35    43    44    1
    36    44    45    1
    37    35    36   am
    38    36    37    2
    39    10    11   ar
    40    11    12   ar
    41    12    13   ar
    42    13    14   ar
    43    14     6   ar
    44    13     8   ar
    45    22    17   ar
    46    36    30    1
    47    45    41    1
    48     3     4    1
    49    28    29    1
@<TRIPOS>MOLECULE
*****
 45 49 0 0 0
SMALL
GASTEIGER

@<TRIPOS>ATOM
      1 C          63.2106   87.2511   13.4086 C.2     1  UNL1        0.3851
      2 N          63.6725   87.2335   14.8356 N.am    1  UNL1        0.0007
      3 N          62.9042   85.9631   12.7035 N.pl3   1  UNL1       -0.2438
      4 H          63.0833   85.1035   13.1487 H       1  UNL1        0.2647
      5 C          61.8034   84.3939    5.0911 C.3     1  UNL1        0.0725
      6 C          61.7863   84.8676    6.5142 C.ar    1  UNL1        0.1233
      7 C          62.7377   84.4470    7.5949 C.ar    1  UNL1        0.0361
      8 C          62.3543   85.1645    8.8552 C.ar    1  UNL1        0.0400
      9 C          62.9337   85.1427   10.2385 C.ar    1  UNL1        0.0365
     10 C          62.3247   85.9849   11.3201 C.ar    1  UNL1        0.1168
     11 C          61.1363   86.8490   11.0182 C.ar    1  UNL1        0.0365
     12 C          60.5569   86.8708    9.6349 C.ar    1  UNL1        0.0404
     13 C          61.1659   86.0285    8.5533 C.ar    1  UNL1        0.1450
     14 O          60.8149   85.8450    7.1066 O.2     1  UNL1       -0.4577
     15 C          63.8280   85.9278   15.5575 C.2     1  UNL1        0.3433
     16 O          64.2388   85.9127   17.0001 O.2     1  UNL1       -0.2483
     17 C          63.5726   84.6373   14.8369 C.ar    1  UNL1        0.0919
     18 C          64.6089   84.0798   13.9068 C.ar    1  UNL1        0.0094
     19 C          64.3535   82.7893   13.1861 C.ar    1  UNL1        0.0240
     20 C          63.0617   82.0562   13.3957 C.ar    1  UNL1        0.1347
     21 N          62.0253   82.6137   14.3258 N.ar    1  UNL1       -0.2390
     22 C          62.2808   83.9042   15.0465 C.ar    1  UNL1        0.1051
     23 C          62.8063   80.7657   12.6751 C.2     1  UNL1        0.2669
     24 O          62.2717   79.5814   13.4244 O.2     1  UNL1       -0.2683
     25 N          63.0854   80.6595   11.2051 N.am    1  UNL1       -0.2713
     26 C          62.8300   79.3690   10.4845 C.3     1  UNL1        0.1153
     27 C          63.6199   81.8439   10.4557 C.3     1  UNL1        0.1153
     28 N          63.0552   88.5568   12.6867 N.pl3   1  UNL1       -0.2585
     29 H          62.3929   88.6436   11.9634 H       1  UNL1        0.2589
     30 C          63.9088   89.7302   13.0668 C.3     1  UNL1        0.2142
     31 C          64.3998   89.7458   14.4840 C.3     1  UNL1        0.0490
     32 C          65.2619   90.7680   15.1639 C.3     1  UNL1        0.0057
     33 C          65.8458   92.0269   14.5944 C.3     1  UNL1        0.0216
     34 C          65.7118   92.5745   13.2044 C.3     1  UNL1        0.0940
     35 N          64.9609   91.9986   12.0406 N.am    1  UNL1       -0.2686
     36 C          64.1585   90.7327   11.9793 C.2     1  UNL1        0.2622
     37 O          63.5216   90.4293   10.6556 O.2     1  UNL1       -0.2712
     38 C          65.0203   92.7936   10.7700 C.3     1  UNL1        0.1794
     39 C          66.3480   93.1627   10.1777 C.2     1  UNL1        0.2459
     40 O          67.4566   92.1532   10.1341 O.2     1  UNL1       -0.2730
     41 N          66.5672   94.5414    9.6288 N.am    1  UNL1       -0.2781
     42 C          65.5580   95.6510    9.6033 C.3     1  UNL1        0.0935
     43 C          66.2011   96.8478    8.9679 C.3     1  UNL1        0.0233
     44 C          67.6077   96.4781    8.6007 C.3     1  UNL1        0.0233
     45 C          67.8339   95.0527    9.0092 C.3     1  UNL1        0.0935
@<TRIPOS>BOND
     1     5     6    1
     2     6     7   ar
     3     7     8   ar
     4     8     9   ar
     5     9    10   ar
     6    10     3    1
     7     3     1    1
     8     1     2    2
     9     2    15    1
    10    15    16    2
    11    15    17    1
    12    17    18   ar
    13    18    19   ar
    14    19    20   ar
    15    20    23    1
    16    23    24    2
    17    23    25   am
    18    25    26    1
    19    25    27    1
    20    20    21   ar
    21    21    22   ar
    22     1    28    1
    23    30    28    1
    24    30    31    1
    25    31    32    1
    26    32    33    1
    27    33    34    1
    28    34    35    1
    29    35    38    1
    30    38    39    1
    31    39    40    2
    32    39    41   am
    33    41    42    1
    34    42    43    1
    35    43    44    1
    36    44    45    1
    37    35    36   am
    38    36    37    2
    39    10    11   ar
    40    11    12   ar
    41    12    13   ar
    42    13    14   ar
    43    14     6   ar
    44    13     8   ar
    45    22    17   ar
    46    36    30    1
    47    45    41    1
    48     3     4    1
    49    28    29    1
@<TRIPOS>MOLECULE
*****
 45 49 0 0 0
SMALL
GASTEIGER

@<TRIPOS>ATOM
      1 C          60.2736   88.8536    8.2403 C.2     1  UNL1        0.3851
      2 N          60.7659   90.0901    8.9319 N.am    1  UNL1        0.0007
      3 N          59.9037   87.6419    9.0433 N.pl3   1  UNL1       -0.2438
      4 H          58.9673   87.4948    9.3096 H       1  UNL1        0.2647
      5 C          64.4279   82.9831   13.4536 C.3     1  UNL1        0.0725
      6 C          63.7199   83.7712   12.3917 C.ar    1  UNL1        0.1233
      7 C          62.5859   84.7280   12.6125 C.ar    1  UNL1        0.0361
      8 C          62.1867   85.2891   11.2799 C.ar    1  UNL1        0.0400
      9 C          61.1300   86.2767   10.8825 C.ar    1  UNL1        0.0365
     10 C          60.9605   86.6542    9.4408 C.ar    1  UNL1        0.1168
     11 C          61.8477   86.0442    8.3964 C.ar    1  UNL1        0.0365
     12 C          62.9044   85.0566    8.7938 C.ar    1  UNL1        0.0404
     13 C          63.0739   84.6791   10.2355 C.ar    1  UNL1        0.1450
     14 O          64.0215   83.7410   10.9227 O.2     1  UNL1       -0.4577
     15 C          60.8884   90.1150   10.4268 C.2     1  UNL1        0.3433
     16 O          59.7425   89.6595   11.2808 O.2     1  UNL1       -0.2483
     17 C          62.1567   90.5954   11.0675 C.ar    1  UNL1        0.0919
     18 C          63.1189   91.4398   10.2856 C.ar    1  UNL1        0.0094
     19 C          64.3872   91.9202   10.9263 C.ar    1  UNL1        0.0240
     20 C          64.6934   91.5562   12.3489 C.ar    1  UNL1        0.1347
     21 N          63.7313   90.7118   13.1308 N.ar    1  UNL1       -0.2390
     22 C          62.4629   90.2314   12.4900 C.ar    1  UNL1        0.1051
     23 C          65.9618   92.0365   12.9896 C.2     1  UNL1        0.2669
     24 O          67.0957   92.5223   12.1363 O.2     1  UNL1       -0.2683
     25 N          66.0961   92.0311   14.4836 N.am    1  UNL1       -0.2713
     26 C          67.3645   92.5115   15.1242 C.3     1  UNL1        0.1153
     27 C          64.9622   91.5453   15.3368 C.3     1  UNL1        0.1153
     28 N          60.1511   88.8287    6.7454 N.pl3   1  UNL1       -0.2585
     29 H          60.6453   88.1570    6.2221 H       1  UNL1        0.2589
     30 C          59.2756   89.8272    6.0479 C.3     1  UNL1        0.2142
     31 C          57.8000   89.6568    6.2565 C.3     1  UNL1        0.0490
     32 C          56.6758   90.4812    5.7027 C.3     1  UNL1        0.0057
     33 C          56.7497   91.6797    4.8036 C.3     1  UNL1        0.0216
     34 C          57.9659   92.3497    4.2363 C.3     1  UNL1        0.0940
     35 N          59.4087   91.9867    4.4279 N.am    1  UNL1       -0.2686
     36 C          59.9915   90.8641    5.2342 C.2     1  UNL1        0.2622
     37 O          61.4883   90.7654    5.2255 O.2     1  UNL1       -0.2712
     38 C          60.3996   92.8622    3.7196 C.3     1  UNL1        0.1794
     39 C          60.3814   92.9566    2.2228 C.2     1  UNL1        0.2459
     40 O          59.0824   92.8514    1.4803 O.2     1  UNL1       -0.2730
     41 N          61.6624   93.1563    1.4683 N.am    1  UNL1       -0.2781
     42 C          63.0307   93.2787    2.0708 C.3     1  UNL1        0.0935
     43 C          64.0139   93.4666    0.9537 C.3     1  UNL1        0.0233
     44 C          63.2534   93.4604   -0.3392 C.3     1  UNL1        0.0233
     45 C          61.8001   93.2686   -0.0211 C.3     1  UNL1        0.0935
@<TRIPOS>BOND
     1     5     6    1
     2     6     7   ar
     3     7     8   ar
     4     8     9   ar
     5     9    10   ar
     6    10     3    1
     7     3     1    1
     8     1     2    2
     9     2    15    1
    10    15    16    2
    11    15    17    1
    12    17    18   ar
    13    18    19   ar
    14    19    20   ar
    15    20    23    1
    16    23    24    2
    17    23    25   am
    18    25    26    1
    19    25    27    1
    20    20    21   ar
    21    21    22   ar
    22     1    28    1
    23    30    28    1
    24    30    31    1
    25    31    32    1
    26    32    33    1
    27    33    34    1
    28    34    35    1
    29    35    38    1
    30    38    39    1
    31    39    40    2
    32    39    41   am
    33    41    42    1
    34    42    43    1
    35    43    44    1
    36    44    45    1
    37    35    36   am
    38    36    37    2
    39    10    11   ar
    40    11    12   ar
    41    12    13   ar
    42    13    14   ar
    43    14     6   ar
    44    13     8   ar
    45    22    17   ar
    46    36    30    1
    47    45    41    1
    48     3     4    1
    49    28    29    1
