@<TRIPOS>MOLECULE
*****
 28 31 0 0 0
SMALL
GASTEIGER

@<TRIPOS>ATOM
      1 N          59.0161   92.5242    1.0408 N.am    1  UNL1       -0.2646
      2 C          59.4788   93.0893    2.3509 C.2     1  UNL1        0.2506
      3 O          59.8297   94.5437    2.4584 O.2     1  UNL1       -0.2698
      4 H          58.7858   91.5696    0.9703 H       1  UNL1        0.1566
      5 C          59.8891   96.8547   -5.4482 C.3     1  UNL1        0.0537
      6 C          59.2619   96.2034   -4.2513 C.ar    1  UNL1        0.0766
      7 C          60.0830   95.3144   -3.3649 C.ar    1  UNL1        0.0962
      8 N          59.4559   94.6631   -2.1680 N.ar    1  UNL1       -0.2843
      9 C          60.0099   93.7439   -1.1201 C.ar    1  UNL1        0.1162
     10 C          58.9041   93.4134   -0.1620 C.ar    1  UNL1        0.1538
     11 N          57.6667   94.1283   -0.6178 N.ar    1  UNL1       -0.2103
     12 C          58.0077   94.9007   -1.8576 C.ar    1  UNL1        0.1629
     13 C          57.1867   95.7896   -2.7440 C.ar    1  UNL1        0.0933
     14 C          55.7385   96.0272   -2.4336 C.3     1  UNL1        0.0553
     15 N          57.8138   96.4409   -3.9408 N.ar    1  UNL1       -0.2494
     16 C          59.5908   92.2000    3.5537 C.ar    1  UNL1        0.0538
     17 C          60.9245   91.6401    3.9508 C.ar    1  UNL1        0.0058
     18 C          61.0365   90.7507    5.1536 C.ar    1  UNL1        0.0147
     19 C          59.8148   90.4213    5.9591 C.ar    1  UNL1        0.0479
     20 C          58.4811   90.9812    5.5620 C.ar    1  UNL1        0.0147
     21 C          58.3691   91.8705    4.3592 C.ar    1  UNL1        0.0058
     22 N          59.9268   89.5319    7.1618 N.pl3   1  UNL1       -0.3046
     23 C          59.3901   88.1321    7.1121 C.3     1  UNL1        0.1081
     24 C          59.5021   87.2428    8.3149 C.3     1  UNL1        0.0938
     25 N          60.1509   87.7533    9.5673 N.3     1  UNL1       -0.2686
     26 C          60.2629   86.8640   10.7700 C.3     1  UNL1        0.0897
     27 C          60.6876   89.1531    9.6170 C.3     1  UNL1        0.0938
     28 C          60.5756   90.0425    8.4143 C.3     1  UNL1        0.1081
@<TRIPOS>BOND
     1     5     6    1
     2     6     7   ar
     3     7     8   ar
     4     8     9   ar
     5     9    10   ar
     6    10     1    1
     7     1     2   am
     8     2     3    2
     9     2    16    1
    10    16    17   ar
    11    17    18   ar
    12    18    19   ar
    13    19    22    1
    14    22    23    1
    15    23    24    1
    16    24    25    1
    17    25    26    1
    18    25    27    1
    19    27    28    1
    20    19    20   ar
    21    20    21   ar
    22    10    11   ar
    23    11    12   ar
    24    12    13   ar
    25    13    14    1
    26    13    15   ar
    27    15     6   ar
    28    12     8   ar
    29    21    16   ar
    30    28    22    1
    31     1     4    1
@<TRIPOS>MOLECULE
*****
 28 31 0 0 0
SMALL
GASTEIGER

@<TRIPOS>ATOM
      1 N          59.0128   92.5292    1.0401 N.am    1  UNL1       -0.2646
      2 C          59.4413   93.1089    2.3555 C.2     1  UNL1        0.2506
      3 O          59.7579   94.5711    2.4633 O.2     1  UNL1       -0.2698
      4 H          58.8051   91.5694    0.9695 H       1  UNL1        0.1566
      5 C          56.9524   96.8559   -5.1774 C.3     1  UNL1        0.0537
      6 C          57.7922   96.1949   -4.1247 C.ar    1  UNL1        0.0766
      7 C          57.1462   95.3272   -3.0854 C.ar    1  UNL1        0.0962
      8 N          57.9859   94.6663   -2.0328 N.ar    1  UNL1       -0.2843
      9 C          57.6332   93.7631   -0.8884 C.ar    1  UNL1        0.1162
     10 C          58.9009   93.4117   -0.1676 C.ar    1  UNL1        0.1538
     11 N          60.0370   94.0977   -0.8666 N.ar    1  UNL1       -0.2103
     12 C          59.4715   94.8731   -2.0194 C.ar    1  UNL1        0.1629
     13 C          60.1174   95.7408   -3.0586 C.ar    1  UNL1        0.0933
     14 C          61.6030   95.9476   -3.0451 C.3     1  UNL1        0.0553
     15 N          59.2777   96.4017   -4.1112 N.ar    1  UNL1       -0.2494
     16 C          59.5532   92.2262    3.5633 C.ar    1  UNL1        0.0538
     17 C          60.8907   91.6881    3.9775 C.ar    1  UNL1        0.0058
     18 C          61.0027   90.8055    5.1852 C.ar    1  UNL1        0.0147
     19 C          59.7772   90.4610    5.9786 C.ar    1  UNL1        0.0479
     20 C          58.4398   90.9991    5.5643 C.ar    1  UNL1        0.0147
     21 C          58.3278   91.8817    4.3567 C.ar    1  UNL1        0.0058
     22 N          59.8892   89.5784    7.1863 N.pl3   1  UNL1       -0.3046
     23 C          60.5072   90.1069    8.4468 C.3     1  UNL1        0.1081
     24 C          60.6191   89.2242    9.6544 C.3     1  UNL1        0.0938
     25 N          60.1131   87.8131    9.6015 N.3     1  UNL1       -0.2686
     26 C          60.2251   86.9305   10.8092 C.3     1  UNL1        0.0897
     27 C          59.4952   87.2846    8.3410 C.3     1  UNL1        0.0938
     28 C          59.3832   88.1673    7.1333 C.3     1  UNL1        0.1081
@<TRIPOS>BOND
     1     5     6    1
     2     6     7   ar
     3     7     8   ar
     4     8     9   ar
     5     9    10   ar
     6    10     1    1
     7     1     2   am
     8     2     3    2
     9     2    16    1
    10    16    17   ar
    11    17    18   ar
    12    18    19   ar
    13    19    22    1
    14    22    23    1
    15    23    24    1
    16    24    25    1
    17    25    26    1
    18    25    27    1
    19    27    28    1
    20    19    20   ar
    21    20    21   ar
    22    10    11   ar
    23    11    12   ar
    24    12    13   ar
    25    13    14    1
    26    13    15   ar
    27    15     6   ar
    28    12     8   ar
    29    21    16   ar
    30    28    22    1
    31     1     4    1
@<TRIPOS>MOLECULE
*****
 28 31 0 0 0
SMALL
GASTEIGER

@<TRIPOS>ATOM
      1 N          72.0374   78.3428    9.6522 N.am    1  UNL1       -0.2646
      2 C          72.6497   78.6518   10.9862 C.2     1  UNL1        0.2506
      3 O          73.4472   79.9085   11.1724 O.2     1  UNL1       -0.2698
      4 H          71.5140   77.5179    9.5300 H       1  UNL1        0.1566
      5 C          73.6220   82.1141    2.9522 C.3     1  UNL1        0.0537
      6 C          73.1450   81.8418    4.3481 C.ar    1  UNL1        0.0766
      7 C          73.3012   80.4725    4.9404 C.ar    1  UNL1        0.0962
      8 N          72.8242   80.2003    6.3362 N.ar    1  UNL1       -0.2843
      9 C          72.8437   78.9600    7.1795 C.ar    1  UNL1        0.1162
     10 C          72.2227   79.2905    8.5043 C.ar    1  UNL1        0.1538
     11 N          71.8194   80.7350    8.4798 N.ar    1  UNL1       -0.2103
     12 C          72.1911   81.2974    7.1398 C.ar    1  UNL1        0.1629
     13 C          72.0350   82.6666    6.5475 C.ar    1  UNL1        0.0933
     14 C          71.4019   83.7636    7.3511 C.3     1  UNL1        0.0553
     15 N          72.5120   82.9388    5.1516 N.ar    1  UNL1       -0.2494
     16 C          72.4644   77.7040   12.1340 C.ar    1  UNL1        0.0538
     17 C          72.7150   78.1686   13.5381 C.ar    1  UNL1        0.0058
     18 C          72.5297   77.2209   14.6859 C.ar    1  UNL1        0.0147
     19 C          72.0939   75.8087   14.4298 C.ar    1  UNL1        0.0479
     20 C          71.8433   75.3441   13.0257 C.ar    1  UNL1        0.0147
     21 C          72.0285   76.2918   11.8778 C.ar    1  UNL1        0.0058
     22 N          71.9086   74.8610   15.5776 N.pl3   1  UNL1       -0.3046
     23 C          73.0838   74.4679   16.4229 C.3     1  UNL1        0.1081
     24 C          72.8984   73.5202   17.5708 C.3     1  UNL1        0.0938
     25 N          71.5380   72.9657   17.8733 N.3     1  UNL1       -0.2686
     26 C          71.3527   72.0180   19.0211 C.3     1  UNL1        0.0897
     27 C          70.3628   73.3587   17.0280 C.3     1  UNL1        0.0938
     28 C          70.5481   74.3064   15.8801 C.3     1  UNL1        0.1081
@<TRIPOS>BOND
     1     5     6    1
     2     6     7   ar
     3     7     8   ar
     4     8     9   ar
     5     9    10   ar
     6    10     1    1
     7     1     2   am
     8     2     3    2
     9     2    16    1
    10    16    17   ar
    11    17    18   ar
    12    18    19   ar
    13    19    22    1
    14    22    23    1
    15    23    24    1
    16    24    25    1
    17    25    26    1
    18    25    27    1
    19    27    28    1
    20    19    20   ar
    21    20    21   ar
    22    10    11   ar
    23    11    12   ar
    24    12    13   ar
    25    13    14    1
    26    13    15   ar
    27    15     6   ar
    28    12     8   ar
    29    21    16   ar
    30    28    22    1
    31     1     4    1
@<TRIPOS>MOLECULE
*****
 28 31 0 0 0
SMALL
GASTEIGER

@<TRIPOS>ATOM
      1 N          72.8056   77.1585   11.6365 N.am    1  UNL1       -0.2646
      2 C          71.5087   76.6981   12.2332 C.2     1  UNL1        0.2506
      3 O          70.2514   77.4787   11.9883 O.2     1  UNL1       -0.2698
      4 H          73.6307   76.6461   11.7972 H       1  UNL1        0.1566
      5 C          72.6689   84.3607    8.5167 C.3     1  UNL1        0.0537
      6 C          72.8048   82.8722    8.6437 C.ar    1  UNL1        0.0766
      7 C          72.6001   82.2112    9.9746 C.ar    1  UNL1        0.0962
      8 N          72.7360   80.7228   10.1015 N.ar    1  UNL1       -0.2843
      9 C          72.5931   79.7983   11.2741 C.ar    1  UNL1        0.1162
     10 C          72.8452   78.3995   10.7948 C.ar    1  UNL1        0.1538
     11 N          73.1441   78.4594    9.3261 N.ar    1  UNL1       -0.2103
     12 C          73.0766   79.8954    8.8976 C.ar    1  UNL1        0.1629
     13 C          73.2812   80.5564    7.5668 C.ar    1  UNL1        0.0933
     14 C          73.6218   79.7290    6.3628 C.3     1  UNL1        0.0553
     15 N          73.1453   82.0448    7.4398 N.ar    1  UNL1       -0.2494
     16 C          71.4691   75.4571   13.0748 C.ar    1  UNL1        0.0538
     17 C          71.2170   75.5591   14.5500 C.ar    1  UNL1        0.0058
     18 C          71.1774   74.3182   15.3917 C.ar    1  UNL1        0.0147
     19 C          71.3898   72.9752   14.7583 C.ar    1  UNL1        0.0479
     20 C          71.6419   72.8731   13.2832 C.ar    1  UNL1        0.0147
     21 C          71.6815   74.1141   12.4414 C.ar    1  UNL1        0.0058
     22 N          71.3502   71.7342   15.6000 N.pl3   1  UNL1       -0.3046
     23 C          71.7000   70.4066   14.9958 C.3     1  UNL1        0.1081
     24 C          71.6604   69.1657   15.8376 C.3     1  UNL1        0.0938
     25 N          71.2710   69.2525   17.2835 N.3     1  UNL1       -0.2686
     26 C          71.2314   68.0115   18.1252 C.3     1  UNL1        0.0897
     27 C          70.9212   70.5801   17.8878 C.3     1  UNL1        0.0938
     28 C          70.9608   71.8210   17.0461 C.3     1  UNL1        0.1081
@<TRIPOS>BOND
     1     5     6    1
     2     6     7   ar
     3     7     8   ar
     4     8     9   ar
     5     9    10   ar
     6    10     1    1
     7     1     2   am
     8     2     3    2
     9     2    16    1
    10    16    17   ar
    11    17    18   ar
    12    18    19   ar
    13    19    22    1
    14    22    23    1
    15    23    24    1
    16    24    25    1
    17    25    26    1
    18    25    27    1
    19    27    28    1
    20    19    20   ar
    21    20    21   ar
    22    10    11   ar
    23    11    12   ar
    24    12    13   ar
    25    13    14    1
    26    13    15   ar
    27    15     6   ar
    28    12     8   ar
    29    21    16   ar
    30    28    22    1
    31     1     4    1
@<TRIPOS>MOLECULE
*****
 28 31 0 0 0
SMALL
GASTEIGER

@<TRIPOS>ATOM
      1 N          43.6484   78.9681   12.4858 N.am    1  UNL1       -0.2646
      2 C          43.6605   77.4732   12.6090 C.2     1  UNL1        0.2506
      3 O          43.6726   76.6191   11.3760 O.2     1  UNL1       -0.2698
      4 H          43.6405   79.5286   13.2951 H       1  UNL1        0.1566
      5 C          43.6566   83.6161    6.1598 C.3     1  UNL1        0.0537
      6 C          43.6527   82.3830    7.0139 C.ar    1  UNL1        0.0766
      7 C          43.6564   82.5062    8.5089 C.ar    1  UNL1        0.0962
      8 N          43.6525   81.2731    9.3630 N.ar    1  UNL1       -0.2843
      9 C          43.6548   81.0828   10.8509 C.ar    1  UNL1        0.1162
     10 C          43.6485   79.6089   11.1296 C.ar    1  UNL1        0.1538
     11 N          43.6423   78.8883    9.8140 N.ar    1  UNL1       -0.2103
     12 C          43.6448   79.9169    8.7222 C.ar    1  UNL1        0.1629
     13 C          43.6410   79.7938    7.2272 C.ar    1  UNL1        0.0933
     14 C          43.6333   78.4376    6.5864 C.3     1  UNL1        0.0553
     15 N          43.6450   81.0268    6.3732 N.ar    1  UNL1       -0.2494
     16 C          43.6604   76.8324   13.9653 C.ar    1  UNL1        0.0538
     17 C          43.6332   77.6864   15.1981 C.ar    1  UNL1        0.0058
     18 C          43.6332   77.0457   16.5544 C.ar    1  UNL1        0.0147
     19 C          43.6602   75.5511   16.6779 C.ar    1  UNL1        0.0479
     20 C          43.6874   74.6971   15.4450 C.ar    1  UNL1        0.0147
     21 C          43.6875   75.3378   14.0887 C.ar    1  UNL1        0.0058
     22 N          43.6601   74.9104   18.0342 N.pl3   1  UNL1       -0.3046
     23 C          43.6838   75.7644   19.2671 C.3     1  UNL1        0.1081
     24 C          43.6837   75.1237   20.6234 C.3     1  UNL1        0.0938
     25 N          43.6599   73.6290   20.7467 N.3     1  UNL1       -0.2686
     26 C          43.6598   72.9883   22.1030 C.3     1  UNL1        0.0897
     27 C          43.6363   72.7749   19.5138 C.3     1  UNL1        0.0938
     28 C          43.6364   73.4156   18.1575 C.3     1  UNL1        0.1081
@<TRIPOS>BOND
     1     5     6    1
     2     6     7   ar
     3     7     8   ar
     4     8     9   ar
     5     9    10   ar
     6    10     1    1
     7     1     2   am
     8     2     3    2
     9     2    16    1
    10    16    17   ar
    11    17    18   ar
    12    18    19   ar
    13    19    22    1
    14    22    23    1
    15    23    24    1
    16    24    25    1
    17    25    26    1
    18    25    27    1
    19    27    28    1
    20    19    20   ar
    21    20    21   ar
    22    10    11   ar
    23    11    12   ar
    24    12    13   ar
    25    13    14    1
    26    13    15   ar
    27    15     6   ar
    28    12     8   ar
    29    21    16   ar
    30    28    22    1
    31     1     4    1
@<TRIPOS>MOLECULE
*****
 28 31 0 0 0
SMALL
GASTEIGER

@<TRIPOS>ATOM
      1 N          60.5474   92.5758    0.7422 N.am    1  UNL1       -0.2646
      2 C          60.0120   93.1347    2.0271 C.2     1  UNL1        0.2506
      3 O          59.4985   94.5432    2.0760 O.2     1  UNL1       -0.2698
      4 H          60.8844   91.6513    0.7102 H       1  UNL1        0.1566
      5 C          59.2733   96.4817   -5.9468 C.3     1  UNL1        0.0537
      6 C          59.9479   95.9751   -4.7065 C.ar    1  UNL1        0.0766
      7 C          59.2351   95.0101   -3.8059 C.ar    1  UNL1        0.0962
      8 N          59.9097   94.5036   -2.5656 N.ar    1  UNL1       -0.2843
      9 C          59.4600   93.5539   -1.4951 C.ar    1  UNL1        0.1162
     10 C          60.5694   93.4254   -0.4938 C.ar    1  UNL1        0.1538
     11 N          61.7047   94.2955   -0.9454 N.ar    1  UNL1       -0.2103
     12 C          61.2970   94.9619   -2.2259 C.ar    1  UNL1        0.1629
     13 C          62.0097   95.9268   -3.1265 C.ar    1  UNL1        0.0933
     14 C          63.3970   96.3851   -2.7868 C.3     1  UNL1        0.0553
     15 N          61.3351   96.4333   -4.3668 N.ar    1  UNL1       -0.2494
     16 C          59.9900   92.2851    3.2631 C.ar    1  UNL1        0.0538
     17 C          61.2490   91.6252    3.7420 C.ar    1  UNL1        0.0058
     18 C          61.2272   90.7755    4.9779 C.ar    1  UNL1        0.0147
     19 C          59.9462   90.5858    5.7350 C.ar    1  UNL1        0.0479
     20 C          58.6872   91.2457    5.2562 C.ar    1  UNL1        0.0147
     21 C          58.7091   92.0953    4.0202 C.ar    1  UNL1        0.0058
     22 N          59.9244   89.7361    6.9710 N.pl3   1  UNL1       -0.3046
     23 C          60.5480   90.2400    8.2387 C.3     1  UNL1        0.1081
     24 C          60.5261   89.3903    9.4747 C.3     1  UNL1        0.0938
     25 N          59.8806   88.0367    9.4428 N.3     1  UNL1       -0.2686
     26 C          59.8587   87.1871   10.6788 C.3     1  UNL1        0.0897
     27 C          59.2569   87.5328    8.1751 C.3     1  UNL1        0.0938
     28 C          59.2788   88.3824    6.9392 C.3     1  UNL1        0.1081
@<TRIPOS>BOND
     1     5     6    1
     2     6     7   ar
     3     7     8   ar
     4     8     9   ar
     5     9    10   ar
     6    10     1    1
     7     1     2   am
     8     2     3    2
     9     2    16    1
    10    16    17   ar
    11    17    18   ar
    12    18    19   ar
    13    19    22    1
    14    22    23    1
    15    23    24    1
    16    24    25    1
    17    25    26    1
    18    25    27    1
    19    27    28    1
    20    19    20   ar
    21    20    21   ar
    22    10    11   ar
    23    11    12   ar
    24    12    13   ar
    25    13    14    1
    26    13    15   ar
    27    15     6   ar
    28    12     8   ar
    29    21    16   ar
    30    28    22    1
    31     1     4    1
@<TRIPOS>MOLECULE
*****
 28 31 0 0 0
SMALL
GASTEIGER

@<TRIPOS>ATOM
      1 N          59.5947   91.0235    4.5730 N.am    1  UNL1       -0.2646
      2 C          60.8413   91.5038    3.8909 C.2     1  UNL1        0.2506
      3 O          62.1842   91.2204    4.4960 O.2     1  UNL1       -0.2698
      4 H          58.7133   91.2096    4.1757 H       1  UNL1        0.1566
      5 C          60.1957   88.3898   11.9436 C.3     1  UNL1        0.0537
      6 C          60.0591   88.4062   10.4498 C.ar    1  UNL1        0.0766
      7 C          60.0289   89.7129    9.7138 C.ar    1  UNL1        0.0962
      8 N          59.8923   89.7293    8.2201 N.ar    1  UNL1       -0.2843
      9 C          59.8336   90.8545    7.2299 C.ar    1  UNL1        0.1162
     10 C          59.6910   90.2597    5.8603 C.ar    1  UNL1        0.1538
     11 N          59.6615   88.7668    6.0041 N.ar    1  UNL1       -0.2103
     12 C          59.7860   88.4391    7.4625 C.ar    1  UNL1        0.1629
     13 C          59.8162   87.1324    8.1986 C.ar    1  UNL1        0.0933
     14 C          59.7098   85.8422    7.4410 C.3     1  UNL1        0.0553
     15 N          59.9527   87.1161    9.6923 N.ar    1  UNL1       -0.2494
     16 C          60.7449   92.2677    2.6035 C.ar    1  UNL1        0.0538
     17 C          61.9753   92.5072    1.7797 C.ar    1  UNL1        0.0058
     18 C          61.8791   93.2710    0.4923 C.ar    1  UNL1        0.0147
     19 C          60.5524   93.7953    0.0287 C.ar    1  UNL1        0.0479
     20 C          59.3219   93.5558    0.8525 C.ar    1  UNL1        0.0147
     21 C          59.4182   92.7920    2.1399 C.ar    1  UNL1        0.0058
     22 N          60.4561   94.5591   -1.2586 N.pl3   1  UNL1       -0.3046
     23 C          60.1797   93.8338   -2.5422 C.3     1  UNL1        0.1081
     24 C          60.0835   94.5978   -3.8295 C.3     1  UNL1        0.0938
     25 N          60.2635   96.0869   -3.8333 N.3     1  UNL1       -0.2686
     26 C          60.1673   96.8507   -5.1206 C.3     1  UNL1        0.0897
     27 C          60.5399   96.8122   -2.5497 C.3     1  UNL1        0.0938
     28 C          60.6362   96.0484   -1.2623 C.3     1  UNL1        0.1081
@<TRIPOS>BOND
     1     5     6    1
     2     6     7   ar
     3     7     8   ar
     4     8     9   ar
     5     9    10   ar
     6    10     1    1
     7     1     2   am
     8     2     3    2
     9     2    16    1
    10    16    17   ar
    11    17    18   ar
    12    18    19   ar
    13    19    22    1
    14    22    23    1
    15    23    24    1
    16    24    25    1
    17    25    26    1
    18    25    27    1
    19    27    28    1
    20    19    20   ar
    21    20    21   ar
    22    10    11   ar
    23    11    12   ar
    24    12    13   ar
    25    13    14    1
    26    13    15   ar
    27    15     6   ar
    28    12     8   ar
    29    21    16   ar
    30    28    22    1
    31     1     4    1
@<TRIPOS>MOLECULE
*****
 28 31 0 0 0
SMALL
GASTEIGER

@<TRIPOS>ATOM
      1 N          59.5549   90.7152    5.5394 N.am    1  UNL1       -0.2646
      2 C          60.6937   91.2168    4.7017 C.2     1  UNL1        0.2506
      3 O          62.1083   90.9304    5.1102 O.2     1  UNL1       -0.2698
      4 H          58.6265   90.9032    5.2712 H       1  UNL1        0.1566
      5 C          61.4024   85.4978   11.1061 C.3     1  UNL1        0.0537
      6 C          60.9482   86.7650   10.4443 C.ar    1  UNL1        0.0766
      7 C          60.9246   86.8626    8.9476 C.ar    1  UNL1        0.0962
      8 N          60.4705   88.1298    8.2858 N.ar    1  UNL1       -0.2843
      9 C          60.3412   88.5178    6.8426 C.ar    1  UNL1        0.1162
     10 C          59.8308   89.9271    6.7855 C.ar    1  UNL1        0.1538
     11 N          59.6445   90.4101    8.1934 N.ar    1  UNL1       -0.2103
     12 C          60.0399   89.2993    9.1206 C.ar    1  UNL1        0.1629
     13 C          60.0635   89.2016   10.6172 C.ar    1  UNL1        0.0933
     14 C          59.6329   90.3711   11.4521 C.3     1  UNL1        0.0553
     15 N          60.5176   87.9344   11.2790 N.ar    1  UNL1       -0.2494
     16 C          60.4178   92.0048    3.4555 C.ar    1  UNL1        0.0538
     17 C          61.5564   92.5493    2.6451 C.ar    1  UNL1        0.0058
     18 C          61.2806   93.3373    1.3989 C.ar    1  UNL1        0.0147
     19 C          59.8661   93.5809    0.9632 C.ar    1  UNL1        0.0479
     20 C          58.7274   93.0363    1.7737 C.ar    1  UNL1        0.0147
     21 C          59.0032   92.2483    3.0198 C.ar    1  UNL1        0.0058
     22 N          59.5903   94.3689   -0.2830 N.pl3   1  UNL1       -0.3046
     23 C          60.7285   94.9270   -1.0848 C.3     1  UNL1        0.1081
     24 C          60.4526   95.7150   -2.3310 C.3     1  UNL1        0.0938
     25 N          59.0385   95.9449   -2.7752 N.3     1  UNL1       -0.2686
     26 C          58.7627   96.7329   -4.0214 C.3     1  UNL1        0.0897
     27 C          57.9003   95.3868   -1.9734 C.3     1  UNL1        0.0938
     28 C          58.1761   94.5988   -0.7273 C.3     1  UNL1        0.1081
@<TRIPOS>BOND
     1     5     6    1
     2     6     7   ar
     3     7     8   ar
     4     8     9   ar
     5     9    10   ar
     6    10     1    1
     7     1     2   am
     8     2     3    2
     9     2    16    1
    10    16    17   ar
    11    17    18   ar
    12    18    19   ar
    13    19    22    1
    14    22    23    1
    15    23    24    1
    16    24    25    1
    17    25    26    1
    18    25    27    1
    19    27    28    1
    20    19    20   ar
    21    20    21   ar
    22    10    11   ar
    23    11    12   ar
    24    12    13   ar
    25    13    14    1
    26    13    15   ar
    27    15     6   ar
    28    12     8   ar
    29    21    16   ar
    30    28    22    1
    31     1     4    1
