@<TRIPOS>MOLECULE
*****
 26 29 0 0 0
SMALL
GASTEIGER

@<TRIPOS>ATOM
      1 C          64.1868   90.3236   14.0007 C.3     1  UNL1        0.0472
      2 C          63.9076   88.8970   13.6305 C.2     1  UNL1        0.0323
      3 C          63.1511   88.5825   12.3740 C.2     1  UNL1        0.0875
      4 C          62.8719   87.1559   12.0039 C.3     1  UNL1        0.1434
      5 N          63.3491   86.0439   12.8902 N.ar    1  UNL1       -0.2933
      6 C          64.1056   86.3585   14.1467 C.ar    1  UNL1        0.2019
      7 N          64.4481   85.0617   14.8184 N.ar    1  UNL1       -0.2135
      8 C          63.9033   83.9458   13.9770 C.ar    1  UNL1        0.0999
      9 C          63.9380   82.4553   14.1421 C.ar    1  UNL1        0.0207
     10 C          63.2934   81.5719   13.1154 C.ar    1  UNL1        0.0016
     11 C          62.6142   82.1789   11.9237 C.ar    1  UNL1        0.0016
     12 C          62.5796   83.6694   11.7587 C.ar    1  UNL1        0.0188
     13 C          63.2241   84.5528   12.7853 C.ar    1  UNL1        0.0804
     14 N          64.3848   87.7850   14.5169 N.pl3   1  UNL1       -0.2873
     15 H          64.8813   87.9914   15.3415 H       1  UNL1        0.1547
     16 C          62.1153   86.8414   10.7473 C.ar    1  UNL1        0.0435
     17 C          62.7135   86.6257    9.3887 C.ar    1  UNL1        0.0417
     18 C          61.5956   86.3384    8.4306 C.ar    1  UNL1        0.1795
     19 O          60.3068   86.3766    9.1970 O.2     1  UNL1       -0.4476
     20 C          60.6280   86.6875   10.6288 C.ar    1  UNL1        0.1776
     21 C          62.6738   89.6946   11.4876 C.2     1  UNL1        0.3401
     22 O          63.4256   90.0292   10.2336 O.2     1  UNL1       -0.2451
     23 O          61.4447   90.4718   11.8554 O.3     1  UNL1       -0.4494
     24 C          60.1319   90.1513   11.2043 C.3     1  UNL1        0.1694
     25 C          60.0521   89.9942    9.7148 C.3     1  UNL1        0.0473
     26 C          58.8990   89.9878   12.0428 C.3     1  UNL1        0.0473
@<TRIPOS>BOND
     1     1     2    1
     2     2     3    2
     3     3    21    1
     4    21    22    2
     5    21    23    1
     6    23    24    1
     7    24    25    1
     8    24    26    1
     9     3     4    1
    10     4    16    1
    11    16    17   ar
    12    17    18   ar
    13    18    19   ar
    14    19    20   ar
    15     4     5    1
    16     5     6   ar
    17     6     7   ar
    18     7     8   ar
    19     8     9   ar
    20     9    10   ar
    21    10    11   ar
    22    11    12   ar
    23    12    13   ar
    24     6    14    1
    25    14     2    1
    26    20    16   ar
    27    13     5   ar
    28    13     8   ar
    29    14    15    1
@<TRIPOS>MOLECULE
*****
 26 29 0 0 0
SMALL
GASTEIGER

@<TRIPOS>ATOM
      1 C          62.3868   90.7016    9.4456 C.3     1  UNL1        0.0472
      2 C          63.2136   91.0022   10.6606 C.2     1  UNL1        0.0323
      3 C          63.0651   90.1633   11.8952 C.2     1  UNL1        0.0875
      4 C          63.8919   90.4639   13.1101 C.3     1  UNL1        0.1434
      5 N          64.8672   91.6034   13.0905 N.ar    1  UNL1       -0.2933
      6 C          65.0157   92.4423   11.8559 C.ar    1  UNL1        0.2019
      7 N          66.0511   93.4922   12.1307 N.ar    1  UNL1       -0.2135
      8 C          66.5425   93.3023   13.5352 C.ar    1  UNL1        0.0999
      9 C          67.5616   94.0414   14.3505 C.ar    1  UNL1        0.0207
     10 C          67.8491   93.6132   15.7590 C.ar    1  UNL1        0.0016
     11 C          67.1174   92.4459   16.3522 C.ar    1  UNL1        0.0016
     12 C          66.0982   91.7067   15.5369 C.ar    1  UNL1        0.0188
     13 C          65.8108   92.1349   14.1283 C.ar    1  UNL1        0.0804
     14 N          64.1889   92.1417   10.6409 N.pl3   1  UNL1       -0.2873
     15 H          64.2864   92.6923    9.8306 H       1  UNL1        0.1547
     16 C          63.7433   89.6250   14.3448 C.ar    1  UNL1        0.0435
     17 C          63.0385   90.0291   15.6057 C.ar    1  UNL1        0.0417
     18 C          63.1332   88.8885   16.5753 C.ar    1  UNL1        0.1795
     19 O          63.8964   87.7796   15.9137 O.2     1  UNL1       -0.4476
     20 C          64.2735   88.2348   14.5351 C.ar    1  UNL1        0.1776
     21 C          62.0898   89.0238   11.9148 C.2     1  UNL1        0.3401
     22 O          60.6220   89.2955   12.0629 O.2     1  UNL1       -0.2451
     23 O          62.5822   87.6128   11.7864 O.3     1  UNL1       -0.4494
     24 C          62.0495   86.7286   10.6981 C.3     1  UNL1        0.1694
     25 C          62.0434   85.2394   10.8772 C.3     1  UNL1        0.0473
     26 C          61.5228   87.3337    9.4306 C.3     1  UNL1        0.0473
@<TRIPOS>BOND
     1     1     2    1
     2     2     3    2
     3     3    21    1
     4    21    22    2
     5    21    23    1
     6    23    24    1
     7    24    25    1
     8    24    26    1
     9     3     4    1
    10     4    16    1
    11    16    17   ar
    12    17    18   ar
    13    18    19   ar
    14    19    20   ar
    15     4     5    1
    16     5     6   ar
    17     6     7   ar
    18     7     8   ar
    19     8     9   ar
    20     9    10   ar
    21    10    11   ar
    22    11    12   ar
    23    12    13   ar
    24     6    14    1
    25    14     2    1
    26    20    16   ar
    27    13     5   ar
    28    13     8   ar
    29    14    15    1
@<TRIPOS>MOLECULE
*****
 26 29 0 0 0
SMALL
GASTEIGER

@<TRIPOS>ATOM
      1 C          66.3580   93.8343   12.7159 C.3     1  UNL1        0.0472
      2 C          65.3988   92.7099   12.4594 C.2     1  UNL1        0.0323
      3 C          65.1480   91.6811   13.5217 C.2     1  UNL1        0.0875
      4 C          64.1888   90.5567   13.2653 C.3     1  UNL1        0.1434
      5 N          63.4804   90.4611   11.9466 N.ar    1  UNL1       -0.2933
      6 C          63.7312   91.4900   10.8843 C.ar    1  UNL1        0.2019
      7 N          62.8931   91.1381    9.6911 N.ar    1  UNL1       -0.2135
      8 C          62.1243   89.8917   10.0160 C.ar    1  UNL1        0.0999
      9 C          61.1406   89.0838    9.2226 C.ar    1  UNL1        0.0207
     10 C          60.5199   87.8574    9.8232 C.ar    1  UNL1        0.0016
     11 C          60.8830   87.4390   11.2172 C.ar    1  UNL1        0.0016
     12 C          61.8666   88.2470   12.0106 C.ar    1  UNL1        0.0188
     13 C          62.4873   89.4734   11.4100 C.ar    1  UNL1        0.0804
     14 N          64.6904   92.6144   11.1407 N.pl3   1  UNL1       -0.2873
     15 H          64.8550   93.2897   10.4435 H       1  UNL1        0.1547
     16 C          63.9381   89.5277   14.3277 C.ar    1  UNL1        0.0435
     17 C          64.4333   88.1119   14.3182 C.ar    1  UNL1        0.0417
     18 C          63.9493   87.4433   15.5707 C.ar    1  UNL1        0.1795
     19 O          63.1550   88.4458   16.3542 O.2     1  UNL1       -0.4476
     20 C          63.1480   89.7341   15.5860 C.ar    1  UNL1        0.1776
     21 C          65.8564   91.7765   14.8405 C.2     1  UNL1        0.3401
     22 O          65.1593   92.3787   16.0244 O.2     1  UNL1       -0.2451
     23 O          67.2618   91.2699   14.9754 O.3     1  UNL1       -0.4494
     24 C          68.4144   92.2271   14.9024 C.3     1  UNL1        0.1694
     25 C          68.5075   93.3645   15.8757 C.3     1  UNL1        0.0473
     26 C          69.4739   92.0468   13.8559 C.3     1  UNL1        0.0473
@<TRIPOS>BOND
     1     1     2    1
     2     2     3    2
     3     3    21    1
     4    21    22    2
     5    21    23    1
     6    23    24    1
     7    24    25    1
     8    24    26    1
     9     3     4    1
    10     4    16    1
    11    16    17   ar
    12    17    18   ar
    13    18    19   ar
    14    19    20   ar
    15     4     5    1
    16     5     6   ar
    17     6     7   ar
    18     7     8   ar
    19     8     9   ar
    20     9    10   ar
    21    10    11   ar
    22    11    12   ar
    23    12    13   ar
    24     6    14    1
    25    14     2    1
    26    20    16   ar
    27    13     5   ar
    28    13     8   ar
    29    14    15    1
@<TRIPOS>MOLECULE
*****
 26 29 0 0 0
SMALL
GASTEIGER

@<TRIPOS>ATOM
      1 C          64.3910   89.5156   14.7594 C.3     1  UNL1        0.0472
      2 C          64.0729   88.1689   14.1804 C.2     1  UNL1        0.0323
      3 C          63.2727   88.0662   12.9159 C.2     1  UNL1        0.0875
      4 C          62.9545   86.7195   12.3369 C.3     1  UNL1        0.1434
      5 N          63.4365   85.4755   13.0226 N.ar    1  UNL1       -0.2933
      6 C          64.2367   85.5782   14.2871 C.ar    1  UNL1        0.2019
      7 N          64.5739   84.1874   14.7365 N.ar    1  UNL1       -0.2135
      8 C          63.9822   83.2251   13.7496 C.ar    1  UNL1        0.0999
      9 C          63.9926   81.7268   13.6787 C.ar    1  UNL1        0.0207
     10 C          63.3001   81.0247   12.5486 C.ar    1  UNL1        0.0016
     11 C          62.5971   81.8208   11.4893 C.ar    1  UNL1        0.0016
     12 C          62.5866   83.3190   11.5602 C.ar    1  UNL1        0.0188
     13 C          63.2792   84.0212   12.6904 C.ar    1  UNL1        0.0804
     14 N          64.5549   86.9249   14.8661 N.pl3   1  UNL1       -0.2873
     15 H          65.0801   86.9923   15.6960 H       1  UNL1        0.1547
     16 C          62.1542   86.6168   11.0723 C.ar    1  UNL1        0.0435
     17 C          62.6783   86.2058    9.7282 C.ar    1  UNL1        0.0417
     18 C          61.5374   86.2421    8.7551 C.ar    1  UNL1        0.1795
     19 O          60.3083   86.6755    9.4976 O.2     1  UNL1       -0.4476
     20 C          60.6895   86.9071   10.9298 C.ar    1  UNL1        0.1776
     21 C          62.7906   89.3102   12.2302 C.2     1  UNL1        0.3401
     22 O          61.4333   89.8639   12.5484 O.2     1  UNL1       -0.2451
     23 O          63.6658   90.0005   11.2264 O.3     1  UNL1       -0.4494
     24 C          64.2070   91.3686   11.5184 C.3     1  UNL1        0.1694
     25 C          64.6138   92.2706   10.3911 C.3     1  UNL1        0.0473
     26 C          64.3412   91.8349   12.9378 C.3     1  UNL1        0.0473
@<TRIPOS>BOND
     1     1     2    1
     2     2     3    2
     3     3    21    1
     4    21    22    2
     5    21    23    1
     6    23    24    1
     7    24    25    1
     8    24    26    1
     9     3     4    1
    10     4    16    1
    11    16    17   ar
    12    17    18   ar
    13    18    19   ar
    14    19    20   ar
    15     4     5    1
    16     5     6   ar
    17     6     7   ar
    18     7     8   ar
    19     8     9   ar
    20     9    10   ar
    21    10    11   ar
    22    11    12   ar
    23    12    13   ar
    24     6    14    1
    25    14     2    1
    26    20    16   ar
    27    13     5   ar
    28    13     8   ar
    29    14    15    1
@<TRIPOS>MOLECULE
*****
 26 29 0 0 0
SMALL
GASTEIGER

@<TRIPOS>ATOM
      1 C          64.6295   88.7908   14.9714 C.3     1  UNL1        0.0472
      2 C          63.8625   88.2978   13.7803 C.2     1  UNL1        0.0323
      3 C          63.8122   86.8299   13.4757 C.2     1  UNL1        0.0875
      4 C          63.0452   86.3368   12.2847 C.3     1  UNL1        0.1434
      5 N          62.3284   87.3117   11.3982 N.ar    1  UNL1       -0.2933
      6 C          62.3786   88.7795   11.7028 C.ar    1  UNL1        0.2019
      7 N          61.5794   89.4977   10.6561 N.ar    1  UNL1       -0.2135
      8 C          61.0352   88.4736    9.7047 C.ar    1  UNL1        0.0999
      9 C          60.1780   88.5968    8.4800 C.ar    1  UNL1        0.0207
     10 C          59.7837   87.3690    7.7139 C.ar    1  UNL1        0.0016
     11 C          60.2466   86.0179    8.1726 C.ar    1  UNL1        0.0016
     12 C          61.1038   85.8947    9.3973 C.ar    1  UNL1        0.0188
     13 C          61.4981   87.1226   10.1633 C.ar    1  UNL1        0.0804
     14 N          63.1457   89.2726   12.8938 N.pl3   1  UNL1       -0.2873
     15 H          63.1786   90.2360   13.0937 H       1  UNL1        0.1547
     16 C          62.9950   84.8689   11.9801 C.ar    1  UNL1        0.0435
     17 C          63.7052   84.1772   10.8543 C.ar    1  UNL1        0.0417
     18 C          63.3748   82.7158   10.9264 C.ar    1  UNL1        0.1795
     19 O          62.4607   82.5042   12.0966 O.2     1  UNL1       -0.4476
     20 C          62.2259   83.8349   12.7479 C.ar    1  UNL1        0.1776
     21 C          64.5291   85.8550   14.3622 C.2     1  UNL1        0.3401
     22 O          65.3785   84.7763   13.7581 O.2     1  UNL1       -0.2451
     23 O          64.3965   85.9588   15.8527 O.3     1  UNL1       -0.4494
     24 C          63.0748   85.6891   16.5087 C.3     1  UNL1        0.1694
     25 C          62.6185   86.5419   17.6551 C.3     1  UNL1        0.0473
     26 C          62.2093   84.5664   16.0181 C.3     1  UNL1        0.0473
@<TRIPOS>BOND
     1     1     2    1
     2     2     3    2
     3     3    21    1
     4    21    22    2
     5    21    23    1
     6    23    24    1
     7    24    25    1
     8    24    26    1
     9     3     4    1
    10     4    16    1
    11    16    17   ar
    12    17    18   ar
    13    18    19   ar
    14    19    20   ar
    15     4     5    1
    16     5     6   ar
    17     6     7   ar
    18     7     8   ar
    19     8     9   ar
    20     9    10   ar
    21    10    11   ar
    22    11    12   ar
    23    12    13   ar
    24     6    14    1
    25    14     2    1
    26    20    16   ar
    27    13     5   ar
    28    13     8   ar
    29    14    15    1
@<TRIPOS>MOLECULE
*****
 26 29 0 0 0
SMALL
GASTEIGER

@<TRIPOS>ATOM
      1 C          62.0264   84.8289    8.5284 C.3     1  UNL1        0.0472
      2 C          62.3962   85.6313    9.7407 C.2     1  UNL1        0.0323
      3 C          62.8295   84.9356   10.9970 C.2     1  UNL1        0.0875
      4 C          63.1992   85.7380   12.2092 C.3     1  UNL1        0.1434
      5 N          63.1357   87.2359   12.1652 N.ar    1  UNL1       -0.2933
      6 C          62.7024   87.9316   10.9089 C.ar    1  UNL1        0.2019
      7 N          62.7367   89.4096   11.1621 N.ar    1  UNL1       -0.2135
      8 C          63.1911   89.6275   12.5750 C.ar    1  UNL1        0.0999
      9 C          63.4122   90.8756   13.3770 C.ar    1  UNL1        0.0207
     10 C          63.8800   90.7802   14.7990 C.ar    1  UNL1        0.0016
     11 C          64.1266   89.4368   15.4189 C.ar    1  UNL1        0.0016
     12 C          63.9055   88.1887   14.6169 C.ar    1  UNL1        0.0188
     13 C          63.4378   88.2840   13.1949 C.ar    1  UNL1        0.0804
     14 N          62.3326   87.1293    9.6966 N.pl3   1  UNL1       -0.2873
     15 H          62.0483   87.5858    8.8721 H       1  UNL1        0.1547
     16 C          63.6325   85.0422   13.4656 C.ar    1  UNL1        0.0435
     17 C          62.7448   84.6596   14.6126 C.ar    1  UNL1        0.0417
     18 C          63.5934   83.9879   15.6513 C.ar    1  UNL1        0.1795
     19 O          65.0053   83.9554   15.1463 O.2     1  UNL1       -0.4476
     20 C          65.0296   84.6070   13.7954 C.ar    1  UNL1        0.1776
     21 C          62.8930   83.4375   11.0411 C.2     1  UNL1        0.3401
     22 O          63.9631   82.7097   10.2826 O.2     1  UNL1       -0.2451
     23 O          61.8865   82.6675   11.8435 O.3     1  UNL1       -0.4494
     24 C          62.3464   81.6953   12.8892 C.3     1  UNL1        0.1694
     25 C          61.3578   81.1036   13.8497 C.3     1  UNL1        0.0473
     26 C          63.7949   81.3150   12.9745 C.3     1  UNL1        0.0473
@<TRIPOS>BOND
     1     1     2    1
     2     2     3    2
     3     3    21    1
     4    21    22    2
     5    21    23    1
     6    23    24    1
     7    24    25    1
     8    24    26    1
     9     3     4    1
    10     4    16    1
    11    16    17   ar
    12    17    18   ar
    13    18    19   ar
    14    19    20   ar
    15     4     5    1
    16     5     6   ar
    17     6     7   ar
    18     7     8   ar
    19     8     9   ar
    20     9    10   ar
    21    10    11   ar
    22    11    12   ar
    23    12    13   ar
    24     6    14    1
    25    14     2    1
    26    20    16   ar
    27    13     5   ar
    28    13     8   ar
    29    14    15    1
@<TRIPOS>MOLECULE
*****
 26 29 0 0 0
SMALL
GASTEIGER

@<TRIPOS>ATOM
      1 C          63.1723   92.4714    2.6332 C.3     1  UNL1        0.0472
      2 C          62.4897   92.7747    1.3323 C.2     1  UNL1        0.0323
      3 C          63.2361   93.4832    0.2410 C.2     1  UNL1        0.0875
      4 C          62.5536   93.7865   -1.0598 C.3     1  UNL1        0.1434
      5 N          61.1247   93.3812   -1.2694 N.ar    1  UNL1       -0.2933
      6 C          60.3783   92.6727   -0.1781 C.ar    1  UNL1        0.2019
      7 N          58.9883   92.3977   -0.6703 N.ar    1  UNL1       -0.2135
      8 C          58.8756   92.9363   -2.0657 C.ar    1  UNL1        0.0999
      9 C          57.7412   92.9518   -3.0470 C.ar    1  UNL1        0.0207
     10 C          57.9273   93.5752   -4.3986 C.ar    1  UNL1        0.0016
     11 C          59.2477   94.1830   -4.7689 C.ar    1  UNL1        0.0016
     12 C          60.3820   94.1676   -3.7876 C.ar    1  UNL1        0.0188
     13 C          60.1960   93.5442   -2.4360 C.ar    1  UNL1        0.0804
     14 N          61.0608   92.3694    1.1227 N.pl3   1  UNL1       -0.2873
     15 H          60.5709   91.9043    1.8389 H       1  UNL1        0.1547
     16 C          63.3000   94.4951   -2.1511 C.ar    1  UNL1        0.0435
     17 C          64.0858   93.8423   -3.2495 C.ar    1  UNL1        0.0417
     18 C          64.6631   94.9247   -4.1127 C.ar    1  UNL1        0.1795
     19 O          64.2342   96.2464   -3.5479 O.2     1  UNL1       -0.4476
     20 C          63.3917   95.9809   -2.3355 C.ar    1  UNL1        0.1776
     21 C          64.6651   93.8886    0.4506 C.2     1  UNL1        0.3401
     22 O          65.7459   92.8485    0.4599 O.2     1  UNL1       -0.2451
     23 O          65.0131   95.3338    0.6508 O.3     1  UNL1       -0.4494
     24 C          64.4279   96.0933    1.8044 C.3     1  UNL1        0.1694
     25 C          65.1849   96.1973    3.0951 C.3     1  UNL1        0.0473
     26 C          63.0857   96.7488    1.6672 C.3     1  UNL1        0.0473
@<TRIPOS>BOND
     1     1     2    1
     2     2     3    2
     3     3    21    1
     4    21    22    2
     5    21    23    1
     6    23    24    1
     7    24    25    1
     8    24    26    1
     9     3     4    1
    10     4    16    1
    11    16    17   ar
    12    17    18   ar
    13    18    19   ar
    14    19    20   ar
    15     4     5    1
    16     5     6   ar
    17     6     7   ar
    18     7     8   ar
    19     8     9   ar
    20     9    10   ar
    21    10    11   ar
    22    11    12   ar
    23    12    13   ar
    24     6    14    1
    25    14     2    1
    26    20    16   ar
    27    13     5   ar
    28    13     8   ar
    29    14    15    1
@<TRIPOS>MOLECULE
*****
 26 29 0 0 0
SMALL
GASTEIGER

@<TRIPOS>ATOM
      1 C          60.4016   92.9003    3.0767 C.3     1  UNL1        0.0472
      2 C          60.0640   93.0671    1.6247 C.2     1  UNL1        0.0323
      3 C          61.1154   93.5259    0.6582 C.2     1  UNL1        0.0875
      4 C          60.7779   93.6928   -0.7938 C.3     1  UNL1        0.1434
      5 N          59.3890   93.4008   -1.2793 N.ar    1  UNL1       -0.2933
      6 C          58.3377   92.9420   -0.3128 C.ar    1  UNL1        0.2019
      7 N          57.0648   92.7315   -1.0781 N.ar    1  UNL1       -0.2135
      8 C          57.3295   93.0603   -2.5175 C.ar    1  UNL1        0.0999
      9 C          56.4482   93.0364   -3.7309 C.ar    1  UNL1        0.0207
     10 C          57.0032   93.4261   -5.0688 C.ar    1  UNL1        0.0016
     11 C          58.4397   93.8398   -5.1932 C.ar    1  UNL1        0.0016
     12 C          59.3211   93.8637   -3.9797 C.ar    1  UNL1        0.0188
     13 C          58.7660   93.4739   -2.6419 C.ar    1  UNL1        0.0804
     14 N          58.6752   92.7752    1.1392 N.pl3   1  UNL1       -0.2873
     15 H          57.9851   92.4740    1.7735 H       1  UNL1        0.1547
     16 C          61.8294   94.1516   -1.7603 C.ar    1  UNL1        0.0435
     17 C          62.7810   93.2691   -2.5124 C.ar    1  UNL1        0.0417
     18 C          63.6535   94.1457   -3.3612 C.ar    1  UNL1        0.1795
     19 O          63.2411   95.5698   -3.1338 O.2     1  UNL1       -0.4476
     20 C          62.1137   95.5735   -2.1444 C.ar    1  UNL1        0.1776
     21 C          62.5044   93.8179    1.1437 C.2     1  UNL1        0.3401
     22 O          63.4655   92.6925    1.3880 O.2     1  UNL1       -0.2451
     23 O          62.9321   95.2353    1.3849 O.3     1  UNL1       -0.4494
     24 C          64.3879   95.5951    1.3528 C.3     1  UNL1        0.1694
     25 C          65.1615   95.4779    0.0730 C.3     1  UNL1        0.0473
     26 C          65.0703   96.0721    2.6005 C.3     1  UNL1        0.0473
@<TRIPOS>BOND
     1     1     2    1
     2     2     3    2
     3     3    21    1
     4    21    22    2
     5    21    23    1
     6    23    24    1
     7    24    25    1
     8    24    26    1
     9     3     4    1
    10     4    16    1
    11    16    17   ar
    12    17    18   ar
    13    18    19   ar
    14    19    20   ar
    15     4     5    1
    16     5     6   ar
    17     6     7   ar
    18     7     8   ar
    19     8     9   ar
    20     9    10   ar
    21    10    11   ar
    22    11    12   ar
    23    12    13   ar
    24     6    14    1
    25    14     2    1
    26    20    16   ar
    27    13     5   ar
    28    13     8   ar
    29    14    15    1
@<TRIPOS>MOLECULE
*****
 26 29 0 0 0
SMALL
GASTEIGER

@<TRIPOS>ATOM
      1 C          60.2339   93.5415    2.3491 C.3     1  UNL1        0.0472
      2 C          59.7639   93.3963    0.9321 C.2     1  UNL1        0.0323
      3 C          60.6067   93.9159   -0.1947 C.2     1  UNL1        0.0875
      4 C          60.1367   93.7708   -1.6117 C.3     1  UNL1        0.1434
      5 N          58.8238   93.1060   -1.9021 N.ar    1  UNL1       -0.2933
      6 C          57.9810   92.5864   -0.7753 C.ar    1  UNL1        0.2019
      7 N          56.7415   91.9810   -1.3647 N.ar    1  UNL1       -0.2135
      8 C          56.8184   92.1265   -2.8556 C.ar    1  UNL1        0.0999
      9 C          55.8827   91.7158   -3.9537 C.ar    1  UNL1        0.0207
     10 C          56.2341   92.0003   -5.3839 C.ar    1  UNL1        0.0016
     11 C          57.5211   92.6955   -5.7161 C.ar    1  UNL1        0.0016
     12 C          58.4567   93.1063   -4.6180 C.ar    1  UNL1        0.0188
     13 C          58.1053   92.8218   -3.1878 C.ar    1  UNL1        0.0804
     14 N          58.4510   92.7315    0.6417 N.pl3   1  UNL1       -0.2873
     15 H          57.8977   92.3905    1.3812 H       1  UNL1        0.1547
     16 C          60.9797   94.2904   -2.7385 C.ar    1  UNL1        0.0435
     17 C          62.0671   93.5374   -3.4460 C.ar    1  UNL1        0.0417
     18 C          62.6426   94.4360   -4.5002 C.ar    1  UNL1        0.1795
     19 O          61.9110   95.7442   -4.4443 O.2     1  UNL1       -0.4476
     20 C          60.8832   95.6542   -3.3555 C.ar    1  UNL1        0.1776
     21 C          61.9197   94.5808    0.0956 C.2     1  UNL1        0.3401
     22 O          61.9859   96.0703    0.2600 O.2     1  UNL1       -0.2451
     23 O          63.1663   93.7561    0.2215 O.3     1  UNL1       -0.4494
     24 C          63.7877   93.5369    1.5691 C.3     1  UNL1        0.1694
     25 C          64.6338   94.6095    2.1882 C.3     1  UNL1        0.0473
     26 C          63.5627   92.2450    2.2975 C.3     1  UNL1        0.0473
@<TRIPOS>BOND
     1     1     2    1
     2     2     3    2
     3     3    21    1
     4    21    22    2
     5    21    23    1
     6    23    24    1
     7    24    25    1
     8    24    26    1
     9     3     4    1
    10     4    16    1
    11    16    17   ar
    12    17    18   ar
    13    18    19   ar
    14    19    20   ar
    15     4     5    1
    16     5     6   ar
    17     6     7   ar
    18     7     8   ar
    19     8     9   ar
    20     9    10   ar
    21    10    11   ar
    22    11    12   ar
    23    12    13   ar
    24     6    14    1
    25    14     2    1
    26    20    16   ar
    27    13     5   ar
    28    13     8   ar
    29    14    15    1
