@<TRIPOS>MOLECULE
*****
 19 21 0 0 0
SMALL
GASTEIGER

@<TRIPOS>ATOM
      1 C          61.2973   86.4036    8.8795 C.2     1  UNL1        0.1223
      2 C          62.3309   85.5213    8.2446 C.2     1  UNL1        0.0343
      3 C          63.2011   84.6495    9.1006 C.2     1  UNL1        0.0232
      4 C          63.0377   84.6599   10.5916 C.2     1  UNL1        0.0975
      5 N          63.7451   83.9143   11.6841 N.2     1  UNL1       -0.2200
      6 C          63.1487   84.3358   12.9943 C.2     1  UNL1        0.1898
      7 N          62.0727   85.3419   12.7116 N.2     1  UNL1       -0.2236
      8 C          62.0041   85.5422   11.2265 C.2     1  UNL1        0.0863
      9 C          61.1339   86.4140   10.3705 C.3     1  UNL1        0.1112
     10 C          59.0331   86.8394    7.6824 C.3     1  UNL1        0.2520
     11 O          60.4272   87.2754    8.0235 O.2     1  UNL1       -0.4753
     12 S          63.5567   83.8384   14.3494 S.3     1  UNL1       -0.0757
     13 C          64.4691   84.6636   15.2077 C.3     1  UNL1        0.0651
     14 C          64.0483   86.0343   15.6481 C.3     1  UNL1        0.0112
     15 C          63.2679   86.2077   16.9173 C.3     1  UNL1        0.0009
     16 C          62.8470   87.5784   17.3576 C.3     1  UNL1        0.0000
     17 C          63.2065   88.7758   16.5288 C.3     1  UNL1        0.0000
     18 C          63.9869   88.6024   15.2596 C.3     1  UNL1        0.0000
     19 C          64.4078   87.2316   14.8192 C.3     1  UNL1        0.0009
@<TRIPOS>BOND
     1    10    11    1
     2    11     1    1
     3     1     2    2
     4     2     3    1
     5     3     4    2
     6     4     5    1
     7     5     6    2
     8     6    12    1
     9    12    13    1
    10    13    14    1
    11    14    15    1
    12    15    16    1
    13    16    17    1
    14    17    18    1
    15    18    19    1
    16     6     7    1
    17     7     8    2
    18     8     9    1
    19     9     1    1
    20     8     4    1
    21    19    14    1
@<TRIPOS>MOLECULE
*****
 19 21 0 0 0
SMALL
GASTEIGER

@<TRIPOS>ATOM
      1 C          65.6800   92.6574   12.0648 C.2     1  UNL1        0.1223
      2 C          65.5103   91.9685   13.3863 C.2     1  UNL1        0.0343
      3 C          64.4472   90.9241   13.5566 C.2     1  UNL1        0.0232
      4 C          63.5538   90.5686   12.4054 C.2     1  UNL1        0.0975
      5 N          62.4270   89.5871   12.2751 N.2     1  UNL1       -0.2200
      6 C          61.9004   89.6694   10.8730 C.2     1  UNL1        0.1898
      7 N          62.7016   90.7018   10.1367 N.2     1  UNL1       -0.2236
      8 C          63.7235   91.2575   11.0838 C.2     1  UNL1        0.0863
      9 C          64.7866   92.3020   10.9135 C.3     1  UNL1        0.1112
     10 C          66.4822   94.9049   11.0374 C.3     1  UNL1        0.2520
     11 O          66.7431   93.7019   11.8945 O.2     1  UNL1       -0.4753
     12 S          60.7708   88.8611   10.3066 S.3     1  UNL1       -0.0757
     13 C          60.5581   87.4477   10.7615 C.3     1  UNL1        0.0651
     14 C          61.5413   86.3810   10.3802 C.3     1  UNL1        0.0112
     15 C          62.0343   86.2861    8.9667 C.3     1  UNL1        0.0009
     16 C          63.0176   85.2195    8.5854 C.3     1  UNL1        0.0000
     17 C          63.5079   84.2477    9.6176 C.3     1  UNL1        0.0000
     18 C          63.0148   84.3426   11.0311 C.3     1  UNL1        0.0000
     19 C          62.0315   85.4093   11.4124 C.3     1  UNL1        0.0009
@<TRIPOS>BOND
     1    10    11    1
     2    11     1    1
     3     1     2    2
     4     2     3    1
     5     3     4    2
     6     4     5    1
     7     5     6    2
     8     6    12    1
     9    12    13    1
    10    13    14    1
    11    14    15    1
    12    15    16    1
    13    16    17    1
    14    17    18    1
    15    18    19    1
    16     6     7    1
    17     7     8    2
    18     8     9    1
    19     9     1    1
    20     8     4    1
    21    19    14    1
@<TRIPOS>MOLECULE
*****
 19 21 0 0 0
SMALL
GASTEIGER

@<TRIPOS>ATOM
      1 C          64.1344   90.5252   15.0688 C.2     1  UNL1        0.1223
      2 C          63.4279   90.4085   16.3867 C.2     1  UNL1        0.0343
      3 C          63.0862   89.0557   16.9374 C.2     1  UNL1        0.0232
      4 C          63.4512   87.8196   16.1701 C.2     1  UNL1        0.0975
      5 N          63.2456   86.3620   16.4585 N.2     1  UNL1       -0.2200
      6 C          63.8252   85.5778   15.3186 C.2     1  UNL1        0.1898
      7 N          64.3889   86.5507   14.3259 N.2     1  UNL1       -0.2236
      8 C          64.1577   87.9363   14.8522 C.2     1  UNL1        0.0863
      9 C          64.4993   89.2890   14.3015 C.3     1  UNL1        0.1112
     10 C          65.7999   92.1032   13.8498 C.3     1  UNL1        0.2520
     11 O          64.4761   91.8780   14.5181 O.2     1  UNL1       -0.4753
     12 S          63.8386   84.0830   15.1936 S.3     1  UNL1       -0.0757
     13 C          62.9427   83.4055   14.1994 C.3     1  UNL1        0.0651
     14 C          63.1718   83.5988   12.7297 C.3     1  UNL1        0.0112
     15 C          64.1293   82.7071   11.9962 C.3     1  UNL1        0.0009
     16 C          64.3584   82.9004   10.5265 C.3     1  UNL1        0.0000
     17 C          63.6300   83.9855    9.7902 C.3     1  UNL1        0.0000
     18 C          62.6724   84.8772   10.5237 C.3     1  UNL1        0.0000
     19 C          62.4434   84.6838   11.9935 C.3     1  UNL1        0.0009
@<TRIPOS>BOND
     1    10    11    1
     2    11     1    1
     3     1     2    2
     4     2     3    1
     5     3     4    2
     6     4     5    1
     7     5     6    2
     8     6    12    1
     9    12    13    1
    10    13    14    1
    11    14    15    1
    12    15    16    1
    13    16    17    1
    14    17    18    1
    15    18    19    1
    16     6     7    1
    17     7     8    2
    18     8     9    1
    19     9     1    1
    20     8     4    1
    21    19    14    1
@<TRIPOS>MOLECULE
*****
 19 21 0 0 0
SMALL
GASTEIGER

@<TRIPOS>ATOM
      1 C          65.4592   91.8187   13.2341 C.2     1  UNL1        0.1223
      2 C          65.4651   92.4142   11.8574 C.2     1  UNL1        0.0343
      3 C          64.4340   91.9919   10.8532 C.2     1  UNL1        0.0232
      4 C          63.3971   90.9741   11.2256 C.2     1  UNL1        0.0975
      5 N          62.2633   90.3674   10.4532 N.2     1  UNL1       -0.2200
      6 C          61.5567   89.3968   11.3526 C.2     1  UNL1        0.1898
      7 N          62.2537   89.4037   12.6807 N.2     1  UNL1       -0.2236
      8 C          63.3912   90.3786   12.6022 C.2     1  UNL1        0.0863
      9 C          64.4222   90.8009   13.6065 C.3     1  UNL1        0.1112
     10 C          66.0925   92.4869   15.6636 C.3     1  UNL1        0.2520
     11 O          66.4903   92.2409   14.2384 O.2     1  UNL1       -0.4753
     12 S          60.3627   88.5654   10.9877 S.3     1  UNL1       -0.0757
     13 C          60.4405   87.6051    9.8380 C.3     1  UNL1        0.0651
     14 C          61.4448   86.4911    9.8580 C.3     1  UNL1        0.0112
     15 C          62.1874   86.1283    8.6062 C.3     1  UNL1        0.0009
     16 C          63.1917   85.0143    8.6261 C.3     1  UNL1        0.0000
     17 C          63.4534   84.2631    9.8978 C.3     1  UNL1        0.0000
     18 C          62.7108   84.6259   11.1496 C.3     1  UNL1        0.0000
     19 C          61.7065   85.7400   11.1296 C.3     1  UNL1        0.0009
@<TRIPOS>BOND
     1    10    11    1
     2    11     1    1
     3     1     2    2
     4     2     3    1
     5     3     4    2
     6     4     5    1
     7     5     6    2
     8     6    12    1
     9    12    13    1
    10    13    14    1
    11    14    15    1
    12    15    16    1
    13    16    17    1
    14    17    18    1
    15    18    19    1
    16     6     7    1
    17     7     8    2
    18     8     9    1
    19     9     1    1
    20     8     4    1
    21    19    14    1
@<TRIPOS>MOLECULE
*****
 19 21 0 0 0
SMALL
GASTEIGER

@<TRIPOS>ATOM
      1 C          63.8223   82.9812   11.6143 C.2     1  UNL1        0.1223
      2 C          64.1045   83.0589   10.1432 C.2     1  UNL1        0.0343
      3 C          63.5306   84.1794    9.3276 C.2     1  UNL1        0.0232
      4 C          62.6745   85.2221    9.9831 C.2     1  UNL1        0.0975
      5 N          61.9765   86.4339    9.4407 N.2     1  UNL1       -0.2200
      6 C          61.2629   87.1052   10.5766 C.2     1  UNL1        0.1898
      7 N          61.5199   86.3082   11.8211 N.2     1  UNL1       -0.2236
      8 C          62.3923   85.1444   11.4543 C.2     1  UNL1        0.0863
      9 C          62.9662   84.0239   12.2698 C.3     1  UNL1        0.1112
     10 C          63.6093   81.2824   13.5685 C.3     1  UNL1        0.2520
     11 O          64.3962   81.8607   12.4299 O.2     1  UNL1       -0.4753
     12 S          60.4373   88.3542   10.4842 S.3     1  UNL1       -0.0757
     13 C          61.0600   89.6309   10.0023 C.3     1  UNL1        0.0651
     14 C          62.1749   90.2626   10.7820 C.3     1  UNL1        0.0112
     15 C          62.3516   89.9373   12.2356 C.3     1  UNL1        0.0009
     16 C          63.4665   90.5690   13.0153 C.3     1  UNL1        0.0000
     17 C          64.4047   91.5260   12.3414 C.3     1  UNL1        0.0000
     18 C          64.2280   91.8512   10.8878 C.3     1  UNL1        0.0000
     19 C          63.1130   91.2195   10.1081 C.3     1  UNL1        0.0009
@<TRIPOS>BOND
     1    10    11    1
     2    11     1    1
     3     1     2    2
     4     2     3    1
     5     3     4    2
     6     4     5    1
     7     5     6    2
     8     6    12    1
     9    12    13    1
    10    13    14    1
    11    14    15    1
    12    15    16    1
    13    16    17    1
    14    17    18    1
    15    18    19    1
    16     6     7    1
    17     7     8    2
    18     8     9    1
    19     9     1    1
    20     8     4    1
    21    19    14    1
@<TRIPOS>MOLECULE
*****
 19 21 0 0 0
SMALL
GASTEIGER

@<TRIPOS>ATOM
      1 C          60.7133   88.1953    9.4145 C.2     1  UNL1        0.1223
      2 C          61.5200   89.3796    9.8578 C.2     1  UNL1        0.0343
      3 C          62.4829   89.2461   11.0002 C.2     1  UNL1        0.0232
      4 C          62.6391   87.9282   11.6992 C.2     1  UNL1        0.0975
      5 N          63.5028   87.4973   12.8473 N.2     1  UNL1       -0.2200
      6 C          63.2300   86.0465   13.1137 C.2     1  UNL1        0.1898
      7 N          62.1976   85.5809   12.1301 N.2     1  UNL1       -0.2236
      8 C          61.8324   86.7439   11.2560 C.2     1  UNL1        0.0863
      9 C          60.8695   86.8774   10.1136 C.3     1  UNL1        0.1112
     10 C          59.0180   87.1225    7.7637 C.3     1  UNL1        0.2520
     11 O          59.7504   88.3288    8.2722 O.2     1  UNL1       -0.4753
     12 S          63.8762   85.2085   14.1769 S.3     1  UNL1       -0.0757
     13 C          64.7064   84.0196   13.7933 C.3     1  UNL1        0.0651
     14 C          64.1755   83.0202   12.8089 C.3     1  UNL1        0.0112
     15 C          64.4909   83.1645   11.3495 C.3     1  UNL1        0.0009
     16 C          63.9600   82.1651   10.3650 C.3     1  UNL1        0.0000
     17 C          63.1136   81.0213   10.8399 C.3     1  UNL1        0.0000
     18 C          62.7981   80.8770   12.2992 C.3     1  UNL1        0.0000
     19 C          63.3291   81.8765   13.2837 C.3     1  UNL1        0.0009
@<TRIPOS>BOND
     1    10    11    1
     2    11     1    1
     3     1     2    2
     4     2     3    1
     5     3     4    2
     6     4     5    1
     7     5     6    2
     8     6    12    1
     9    12    13    1
    10    13    14    1
    11    14    15    1
    12    15    16    1
    13    16    17    1
    14    17    18    1
    15    18    19    1
    16     6     7    1
    17     7     8    2
    18     8     9    1
    19     9     1    1
    20     8     4    1
    21    19    14    1
@<TRIPOS>MOLECULE
*****
 19 21 0 0 0
SMALL
GASTEIGER

@<TRIPOS>ATOM
      1 C          63.8450   83.3008   12.4655 C.2     1  UNL1        0.1223
      2 C          64.3125   83.0073   11.0708 C.2     1  UNL1        0.0343
      3 C          63.8383   83.8541    9.9271 C.2     1  UNL1        0.0232
      4 C          62.8965   84.9943   10.1780 C.2     1  UNL1        0.0975
      5 N          62.2635   85.9946    9.2569 N.2     1  UNL1       -0.2200
      6 C          61.4047   86.9063   10.0823 C.2     1  UNL1        0.1898
      7 N          61.5070   86.4694   11.5136 N.2     1  UNL1       -0.2236
      8 C          62.4290   85.2877   11.5727 C.2     1  UNL1        0.0863
      9 C          62.9032   84.4409   12.7165 C.3     1  UNL1        0.1112
     10 C          63.7020   81.1088   13.8528 C.3     1  UNL1        0.2520
     11 O          64.3192   82.4540   13.6092 O.2     1  UNL1       -0.4753
     12 S          60.5871   88.0535    9.5668 S.3     1  UNL1       -0.0757
     13 C          60.4818   89.3183   10.3663 C.3     1  UNL1        0.0651
     14 C          61.6969   89.8826   11.0408 C.3     1  UNL1        0.0112
     15 C          62.6796   90.6993   10.2551 C.3     1  UNL1        0.0009
     16 C          63.8947   91.2636   10.9297 C.3     1  UNL1        0.0000
     17 C          64.1271   91.0113   12.3900 C.3     1  UNL1        0.0000
     18 C          63.1444   90.1946   13.1756 C.3     1  UNL1        0.0000
     19 C          61.9292   89.6303   12.5010 C.3     1  UNL1        0.0009
@<TRIPOS>BOND
     1    10    11    1
     2    11     1    1
     3     1     2    2
     4     2     3    1
     5     3     4    2
     6     4     5    1
     7     5     6    2
     8     6    12    1
     9    12    13    1
    10    13    14    1
    11    14    15    1
    12    15    16    1
    13    16    17    1
    14    17    18    1
    15    18    19    1
    16     6     7    1
    17     7     8    2
    18     8     9    1
    19     9     1    1
    20     8     4    1
    21    19    14    1
@<TRIPOS>MOLECULE
*****
 19 21 0 0 0
SMALL
GASTEIGER

@<TRIPOS>ATOM
      1 C          63.3661   81.9366   12.4471 C.2     1  UNL1        0.1223
      2 C          63.6014   81.8694   10.9673 C.2     1  UNL1        0.0343
      3 C          63.4600   83.1050   10.1285 C.2     1  UNL1        0.0232
      4 C          63.0832   84.4076   10.7696 C.2     1  UNL1        0.0975
      5 N          62.8714   85.7806   10.2039 N.2     1  UNL1       -0.2200
      6 C          62.5051   86.6963   11.3341 C.2     1  UNL1        0.1898
      7 N          62.4905   85.8892   12.5984 N.2     1  UNL1       -0.2236
      8 C          62.8479   84.4747   12.2495 C.2     1  UNL1        0.0863
      9 C          62.9893   83.2392   13.0882 C.3     1  UNL1        0.1112
     10 C          62.3387   79.7780   13.4645 C.3     1  UNL1        0.2520
     11 O          63.5075   80.7011   13.2859 O.2     1  UNL1       -0.4753
     12 S          62.2059   88.1617   11.2200 S.3     1  UNL1       -0.0757
     13 C          60.8063   88.6217   10.9381 C.3     1  UNL1        0.0651
     14 C          60.2023   88.3993    9.5833 C.3     1  UNL1        0.0112
     15 C          60.1726   89.5165    8.5828 C.3     1  UNL1        0.0009
     16 C          59.5686   89.2942    7.2279 C.3     1  UNL1        0.0000
     17 C          58.9941   87.9545    6.8735 C.3     1  UNL1        0.0000
     18 C          59.0238   86.8373    7.8740 C.3     1  UNL1        0.0000
     19 C          59.6279   87.0598    9.2289 C.3     1  UNL1        0.0009
@<TRIPOS>BOND
     1    10    11    1
     2    11     1    1
     3     1     2    2
     4     2     3    1
     5     3     4    2
     6     4     5    1
     7     5     6    2
     8     6    12    1
     9    12    13    1
    10    13    14    1
    11    14    15    1
    12    15    16    1
    13    16    17    1
    14    17    18    1
    15    18    19    1
    16     6     7    1
    17     7     8    2
    18     8     9    1
    19     9     1    1
    20     8     4    1
    21    19    14    1
@<TRIPOS>MOLECULE
*****
 19 21 0 0 0
SMALL
GASTEIGER

@<TRIPOS>ATOM
      1 C          60.4906   89.3749    9.5840 C.2     1  UNL1        0.1223
      2 C          59.4380   89.5684   10.6349 C.2     1  UNL1        0.0343
      3 C          59.8359   89.7687   12.0672 C.2     1  UNL1        0.0232
      4 C          61.2866   89.7756   12.4486 C.2     1  UNL1        0.0975
      5 N          61.9764   89.9491   13.7692 N.2     1  UNL1       -0.2200
      6 C          63.4554   89.8629   13.5346 C.2     1  UNL1        0.1898
      7 N          63.6797   89.6361   12.0689 N.2     1  UNL1       -0.2236
      8 C          62.3393   89.5821   11.3978 C.2     1  UNL1        0.0863
      9 C          61.9413   89.3818    9.9655 C.3     1  UNL1        0.1112
     10 C          59.4855   87.8738    7.7169 C.3     1  UNL1        0.2520
     11 O          60.0927   89.1746    8.1517 O.2     1  UNL1       -0.4753
     12 S          64.5228   89.9825   14.5818 S.3     1  UNL1       -0.0757
     13 C          64.8374   91.3205   15.1825 C.3     1  UNL1        0.0651
     14 C          66.2376   91.8557   15.1300 C.3     1  UNL1        0.0112
     15 C          66.7623   92.6956   16.2565 C.3     1  UNL1        0.0009
     16 C          68.1626   93.2308   16.2039 C.3     1  UNL1        0.0000
     17 C          69.0382   92.9261   15.0247 C.3     1  UNL1        0.0000
     18 C          68.5135   92.0862   13.8981 C.3     1  UNL1        0.0000
     19 C          67.1132   91.5510   13.9508 C.3     1  UNL1        0.0009
@<TRIPOS>BOND
     1    10    11    1
     2    11     1    1
     3     1     2    2
     4     2     3    1
     5     3     4    2
     6     4     5    1
     7     5     6    2
     8     6    12    1
     9    12    13    1
    10    13    14    1
    11    14    15    1
    12    15    16    1
    13    16    17    1
    14    17    18    1
    15    18    19    1
    16     6     7    1
    17     7     8    2
    18     8     9    1
    19     9     1    1
    20     8     4    1
    21    19    14    1
