@<TRIPOS>MOLECULE
*****
 30 32 0 0 0
SMALL
GASTEIGER

@<TRIPOS>ATOM
      1 C          61.5376   89.1897   10.4445 C.3     1  UNL1        0.1811
      2 O          62.7554   88.4340   10.0019 O.3     1  UNL1       -0.3784
      3 H          63.4269   89.0590    9.6868 H       1  UNL1        0.2106
      4 C          60.3198   89.9454   10.8872 C.3     1  UNL1        0.4197
      5 F          59.1020   90.7010   11.3300 F       1  UNL1       -0.1676
      6 F          59.9881   90.2493    9.4563 F       1  UNL1       -0.1676
      7 F          60.6514   89.6415   12.3182 F       1  UNL1       -0.1676
      8 C          62.2086   90.4820   10.0842 C.3     1  UNL1        0.0807
      9 C          67.2164   92.5224   15.7745 C.3     1  UNL1        0.0521
     10 C          66.5376   92.4575   14.4385 C.2     1  UNL1        0.0589
     11 C          65.3597   91.5505   14.2391 C.2     1  UNL1        0.0127
     12 C          64.6807   91.4856   12.9031 C.2     1  UNL1        0.0078
     13 C          63.5069   90.6916   12.4113 C.2     1  UNL1        0.0124
     14 C          63.2806   91.0431   10.9707 C.2     1  UNL1        0.0568
     15 N          64.3144   92.0542   10.5722 N.2     1  UNL1       -0.2661
     16 C          65.1798   92.3277   11.7665 C.3     1  UNL1        0.1660
     17 C          66.3578   93.2347   11.9660 C.2     1  UNL1        0.1006
     18 N          67.0366   93.2996   13.3020 N.2     1  UNL1       -0.2505
     19 C          60.8667   87.8975   10.8049 C.3     1  UNL1        0.0398
     20 C          61.6593   86.6243   10.8369 C.3     1  UNL1        0.0212
     21 C          60.7985   86.0610    9.7452 C.3     1  UNL1        0.0044
     22 C          62.5200   87.1876   11.9286 C.3     1  UNL1        0.0044
     23 C          62.4518   85.3512   10.8689 C.ar    1  UNL1       -0.0244
     24 C          62.5870   84.5839   12.1507 C.ar    1  UNL1        0.0250
     25 C          63.3795   83.3108   12.1827 C.ar    1  UNL1        0.1398
     26 F          63.5146   82.5435   13.4645 F       1  UNL1       -0.2042
     27 C          64.0368   82.8049   10.9329 C.ar    1  UNL1        0.0293
     28 C          63.9016   83.5722    9.6511 C.ar    1  UNL1       -0.0023
     29 C          63.1091   84.8453    9.6191 C.ar    1  UNL1       -0.0257
     30 C          62.9739   85.6126    8.3373 C.3     1  UNL1        0.0307
@<TRIPOS>BOND
     1     9    10    1
     2    10    11    2
     3    11    12    1
     4    12    13    2
     5    13    14    1
     6    14     8    1
     7     8     1    1
     8     1     2    1
     9     1    19    1
    10    19    20    1
    11    20    21    1
    12    20    22    1
    13    20    23    1
    14    23    24   ar
    15    24    25   ar
    16    25    26    1
    17    25    27   ar
    18    27    28   ar
    19    28    29   ar
    20    29    30    1
    21     1     4    1
    22     4     5    1
    23     4     6    1
    24     4     7    1
    25    14    15    2
    26    15    16    1
    27    16    17    1
    28    17    18    2
    29    18    10    1
    30    16    12    1
    31    29    23   ar
    32     2     3    1
@<TRIPOS>MOLECULE
*****
 30 32 0 0 0
SMALL
GASTEIGER

@<TRIPOS>ATOM
      1 C          61.9798   86.8794   10.3674 C.3     1  UNL1        0.1811
      2 O          63.0340   86.9451   11.4324 O.3     1  UNL1       -0.3784
      3 H          62.9332   87.7675   11.9368 H       1  UNL1        0.2106
      4 C          60.9255   86.8136    9.3024 C.3     1  UNL1        0.4197
      5 F          59.8712   86.7479    8.2375 F       1  UNL1       -0.1676
      6 F          61.9301   86.2482    8.3428 F       1  UNL1       -0.1676
      7 F          59.9208   87.3790   10.2621 F       1  UNL1       -0.1676
      8 C          61.4417   88.2049   10.8183 C.3     1  UNL1        0.0807
      9 C          66.3349   94.2929   11.6024 C.3     1  UNL1        0.0521
     10 C          65.4928   93.0977   11.9374 C.2     1  UNL1        0.0589
     11 C          64.7026   92.4120   10.8626 C.2     1  UNL1        0.0127
     12 C          63.8604   91.2168   11.1977 C.2     1  UNL1        0.0078
     13 C          62.9801   90.3414   10.3557 C.2     1  UNL1        0.0124
     14 C          62.3842   89.2909   11.2454 C.2     1  UNL1        0.0568
     15 N          62.8961   89.5170   12.6370 N.2     1  UNL1       -0.2661
     16 C          63.8085   90.7073   12.6075 C.3     1  UNL1        0.1660
     17 C          64.5988   91.3931   13.6824 C.2     1  UNL1        0.1006
     18 N          65.4409   92.5883   13.3473 N.2     1  UNL1       -0.2505
     19 C          62.5178   85.5538    9.9166 C.3     1  UNL1        0.0398
     20 C          62.7591   84.4627   10.9173 C.3     1  UNL1        0.0212
     21 C          63.8809   83.9359   10.0723 C.3     1  UNL1        0.0044
     22 C          61.6373   84.9896   11.7623 C.3     1  UNL1        0.0044
     23 C          63.0005   83.3716   11.9179 C.ar    1  UNL1       -0.0244
     24 C          62.6296   81.9561   11.5882 C.ar    1  UNL1        0.0250
     25 C          62.8710   80.8650   12.5888 C.ar    1  UNL1        0.1398
     26 F          62.5002   79.4495   12.2591 F       1  UNL1       -0.2042
     27 C          63.4832   81.1895   13.9193 C.ar    1  UNL1        0.0293
     28 C          63.8540   82.6050   14.2490 C.ar    1  UNL1       -0.0023
     29 C          63.6126   83.6961   13.2483 C.ar    1  UNL1       -0.0257
     30 C          63.9835   85.1117   13.5780 C.3     1  UNL1        0.0307
@<TRIPOS>BOND
     1     9    10    1
     2    10    11    2
     3    11    12    1
     4    12    13    2
     5    13    14    1
     6    14     8    1
     7     8     1    1
     8     1     2    1
     9     1    19    1
    10    19    20    1
    11    20    21    1
    12    20    22    1
    13    20    23    1
    14    23    24   ar
    15    24    25   ar
    16    25    26    1
    17    25    27   ar
    18    27    28   ar
    19    28    29   ar
    20    29    30    1
    21     1     4    1
    22     4     5    1
    23     4     6    1
    24     4     7    1
    25    14    15    2
    26    15    16    1
    27    16    17    1
    28    17    18    2
    29    18    10    1
    30    16    12    1
    31    29    23   ar
    32     2     3    1
@<TRIPOS>MOLECULE
*****
 30 32 0 0 0
SMALL
GASTEIGER

@<TRIPOS>ATOM
      1 C          61.5857   87.3682    9.6757 C.3     1  UNL1        0.1811
      2 O          62.9189   87.5356   10.3425 O.3     1  UNL1       -0.3784
      3 H          63.0059   88.4453   10.6676 H       1  UNL1        0.2106
      4 C          60.2525   87.2008    9.0088 C.3     1  UNL1        0.4197
      5 F          58.9194   87.0334    8.3420 F       1  UNL1       -0.1676
      6 F          59.6065   88.0035   10.0989 F       1  UNL1       -0.1676
      7 F          60.8986   86.3982    7.9187 F       1  UNL1       -0.1676
      8 C          61.2571   88.8012    9.9732 C.3     1  UNL1        0.0807
      9 C          66.5160   93.7837   12.9965 C.3     1  UNL1        0.0521
     10 C          65.4817   92.7020   12.8953 C.2     1  UNL1        0.0589
     11 C          64.8931   92.3496   11.5615 C.2     1  UNL1        0.0127
     12 C          63.8588   91.2679   11.4603 C.2     1  UNL1        0.0078
     13 C          63.1053   90.7058   10.2913 C.2     1  UNL1        0.0124
     14 C          62.1941   89.6292   10.8017 C.2     1  UNL1        0.0568
     15 N          62.3843   89.5258   12.2860 N.2     1  UNL1       -0.2661
     16 C          63.4132   90.5386   12.6930 C.3     1  UNL1        0.1660
     17 C          64.0019   90.8911   14.0269 C.2     1  UNL1        0.1006
     18 N          65.0361   91.9728   14.1281 N.2     1  UNL1       -0.2505
     19 C          61.9144   85.9353    9.3781 C.3     1  UNL1        0.0398
     20 C          62.3652   85.0245   10.4815 C.3     1  UNL1        0.0212
     21 C          61.3514   85.6374   11.4015 C.3     1  UNL1        0.0044
     22 C          63.3790   84.4115    9.5613 C.3     1  UNL1        0.0044
     23 C          62.8159   84.1137   11.5848 C.ar    1  UNL1       -0.0244
     24 C          62.6697   82.6281   11.4378 C.ar    1  UNL1        0.0250
     25 C          63.1204   81.7173   12.5412 C.ar    1  UNL1        0.1398
     26 F          62.9742   80.2317   12.3942 F       1  UNL1       -0.2042
     27 C          63.7173   82.2922   13.7915 C.ar    1  UNL1        0.0293
     28 C          63.8635   83.7778   13.9385 C.ar    1  UNL1       -0.0023
     29 C          63.4128   84.6885   12.8351 C.ar    1  UNL1       -0.0257
     30 C          63.5589   86.1741   12.9820 C.3     1  UNL1        0.0307
@<TRIPOS>BOND
     1     9    10    1
     2    10    11    2
     3    11    12    1
     4    12    13    2
     5    13    14    1
     6    14     8    1
     7     8     1    1
     8     1     2    1
     9     1    19    1
    10    19    20    1
    11    20    21    1
    12    20    22    1
    13    20    23    1
    14    23    24   ar
    15    24    25   ar
    16    25    26    1
    17    25    27   ar
    18    27    28   ar
    19    28    29   ar
    20    29    30    1
    21     1     4    1
    22     4     5    1
    23     4     6    1
    24     4     7    1
    25    14    15    2
    26    15    16    1
    27    16    17    1
    28    17    18    2
    29    18    10    1
    30    16    12    1
    31    29    23   ar
    32     2     3    1
@<TRIPOS>MOLECULE
*****
 30 32 0 0 0
SMALL
GASTEIGER

@<TRIPOS>ATOM
      1 C          61.4920   87.2530    9.5986 C.3     1  UNL1        0.1811
      2 O          62.8557   87.4625   10.1872 O.3     1  UNL1       -0.3784
      3 H          62.9932   88.4077   10.3561 H       1  UNL1        0.2106
      4 C          60.1282   87.0435    9.0101 C.3     1  UNL1        0.4197
      5 F          58.7645   86.8341    8.4216 F       1  UNL1       -0.1676
      6 F          60.7378   86.2885    7.8663 F       1  UNL1       -0.1676
      7 F          59.5186   87.7986   10.1539 F       1  UNL1       -0.1676
      8 C          61.2355   88.7293    9.6676 C.3     1  UNL1        0.0807
      9 C          66.4110   93.9547   12.4118 C.3     1  UNL1        0.0521
     10 C          65.3966   92.8506   12.3701 C.2     1  UNL1        0.0589
     11 C          64.8104   92.4199   11.0583 C.2     1  UNL1        0.0127
     12 C          63.7959   91.3158   11.0165 C.2     1  UNL1        0.0078
     13 C          63.0492   90.6812    9.8808 C.2     1  UNL1        0.0124
     14 C          62.1597   89.6154   10.4491 C.2     1  UNL1        0.0568
     15 N          62.3565   89.5914   11.9358 N.2     1  UNL1       -0.2661
     16 C          63.3677   90.6422   12.2866 C.3     1  UNL1        0.1660
     17 C          63.9540   91.0729   13.5984 C.2     1  UNL1        0.1006
     18 N          64.9685   92.1771   13.6402 N.2     1  UNL1       -0.2505
     19 C          61.7485   85.7768    9.5297 C.3     1  UNL1        0.0398
     20 C          62.4406   85.0819   10.6647 C.3     1  UNL1        0.0212
     21 C          61.4376   85.6503   11.6242 C.3     1  UNL1        0.0044
     22 C          63.4437   84.5136    9.7050 C.3     1  UNL1        0.0044
     23 C          63.1327   84.3871   11.7997 C.ar    1  UNL1       -0.0244
     24 C          63.5564   85.1662   13.0094 C.ar    1  UNL1        0.0250
     25 C          64.2485   84.4714   14.1444 C.ar    1  UNL1        0.1398
     26 F          64.6722   85.2505   15.3542 F       1  UNL1       -0.2042
     27 C          64.5168   82.9975   14.0697 C.ar    1  UNL1        0.0293
     28 C          64.0931   82.2184   12.8600 C.ar    1  UNL1       -0.0023
     29 C          63.4010   82.9133   11.7249 C.ar    1  UNL1       -0.0257
     30 C          62.9773   82.1342   10.5152 C.3     1  UNL1        0.0307
@<TRIPOS>BOND
     1     9    10    1
     2    10    11    2
     3    11    12    1
     4    12    13    2
     5    13    14    1
     6    14     8    1
     7     8     1    1
     8     1     2    1
     9     1    19    1
    10    19    20    1
    11    20    21    1
    12    20    22    1
    13    20    23    1
    14    23    24   ar
    15    24    25   ar
    16    25    26    1
    17    25    27   ar
    18    27    28   ar
    19    28    29   ar
    20    29    30    1
    21     1     4    1
    22     4     5    1
    23     4     6    1
    24     4     7    1
    25    14    15    2
    26    15    16    1
    27    16    17    1
    28    17    18    2
    29    18    10    1
    30    16    12    1
    31    29    23   ar
    32     2     3    1
@<TRIPOS>MOLECULE
*****
 30 32 0 0 0
SMALL
GASTEIGER

@<TRIPOS>ATOM
      1 C          62.2131   88.5131   11.3605 C.3     1  UNL1        0.1811
      2 O          63.3349   88.1233   12.2768 O.3     1  UNL1       -0.3784
      3 H          63.6544   87.2389   12.0387 H       1  UNL1        0.2106
      4 C          61.0913   88.9030   10.4442 C.3     1  UNL1        0.4197
      5 F          59.9696   89.2929    9.5279 F       1  UNL1       -0.1676
      6 F          60.3268   89.4502   11.6129 F       1  UNL1       -0.1676
      7 F          61.8558   88.3558    9.2755 F       1  UNL1       -0.1676
      8 C          62.3406   87.2004   10.6460 C.3     1  UNL1        0.0807
      9 C          62.7462   79.8674   13.4180 C.3     1  UNL1        0.0521
     10 C          62.7391   81.3666   13.3682 C.2     1  UNL1        0.0589
     11 C          62.5472   82.0725   12.0587 C.2     1  UNL1        0.0127
     12 C          62.5400   83.5717   12.0087 C.2     1  UNL1        0.0078
     13 C          62.3736   84.5373   10.8730 C.2     1  UNL1        0.0124
     14 C          62.4555   85.9273   11.4308 C.2     1  UNL1        0.0568
     15 N          62.6726   85.8208   12.9112 N.2     1  UNL1       -0.2661
     16 C          62.7248   84.3649   13.2684 C.3     1  UNL1        0.1660
     17 C          62.9167   83.6589   14.5779 C.2     1  UNL1        0.1006
     18 N          62.9238   82.1598   14.6278 N.2     1  UNL1       -0.2505
     19 C          62.0856   89.8258   12.0751 C.3     1  UNL1        0.0398
     20 C          63.3158   90.5628   12.5151 C.3     1  UNL1        0.0212
     21 C          63.6705   90.8264   11.0817 C.3     1  UNL1        0.0044
     22 C          62.9611   90.2991   13.9485 C.3     1  UNL1        0.0044
     23 C          64.5459   91.2998   12.9550 C.ar    1  UNL1       -0.0244
     24 C          64.9752   92.5417   12.2315 C.ar    1  UNL1        0.0250
     25 C          66.2053   93.2787   12.6714 C.ar    1  UNL1        0.1398
     26 F          66.6345   94.5206   11.9479 F       1  UNL1       -0.2042
     27 C          67.0063   92.7738   13.8349 C.ar    1  UNL1        0.0293
     28 C          66.5770   91.5319   14.5584 C.ar    1  UNL1       -0.0023
     29 C          65.3468   90.7949   14.1184 C.ar    1  UNL1       -0.0257
     30 C          64.9176   89.5530   14.8419 C.3     1  UNL1        0.0307
@<TRIPOS>BOND
     1     9    10    1
     2    10    11    2
     3    11    12    1
     4    12    13    2
     5    13    14    1
     6    14     8    1
     7     8     1    1
     8     1     2    1
     9     1    19    1
    10    19    20    1
    11    20    21    1
    12    20    22    1
    13    20    23    1
    14    23    24   ar
    15    24    25   ar
    16    25    26    1
    17    25    27   ar
    18    27    28   ar
    19    28    29   ar
    20    29    30    1
    21     1     4    1
    22     4     5    1
    23     4     6    1
    24     4     7    1
    25    14    15    2
    26    15    16    1
    27    16    17    1
    28    17    18    2
    29    18    10    1
    30    16    12    1
    31    29    23   ar
    32     2     3    1
@<TRIPOS>MOLECULE
*****
 30 32 0 0 0
SMALL
GASTEIGER

@<TRIPOS>ATOM
      1 C          63.0279   89.7910   12.5084 C.3     1  UNL1        0.1811
      2 O          62.2319   88.5311   12.3384 O.3     1  UNL1       -0.3784
      3 H          62.6264   87.8248   12.8736 H       1  UNL1        0.2106
      4 C          63.8238   91.0511   12.6784 C.3     1  UNL1        0.4197
      5 F          64.6198   92.3110   12.8483 F       1  UNL1       -0.1676
      6 F          63.4462   91.0940   14.1294 F       1  UNL1       -0.1676
      7 F          64.2015   91.0082   11.2274 F       1  UNL1       -0.1676
      8 C          63.9562   89.0780   13.4463 C.3     1  UNL1        0.0807
      9 C          62.9615   81.3026   13.0283 C.3     1  UNL1        0.0521
     10 C          63.2391   82.6693   13.5804 C.2     1  UNL1        0.0589
     11 C          63.1851   83.8673   12.6793 C.2     1  UNL1        0.0127
     12 C          63.4627   85.2342   13.2314 C.2     1  UNL1        0.0078
     13 C          63.4829   86.5903   12.5906 C.2     1  UNL1        0.0124
     14 C          63.8271   87.5972   13.6478 C.2     1  UNL1        0.0568
     15 N          64.0196   86.8635   14.9418 N.2     1  UNL1       -0.2661
     16 C          63.7944   85.4030   14.6845 C.3     1  UNL1        0.1660
     17 C          63.8484   84.2049   15.5855 C.2     1  UNL1        0.1006
     18 N          63.5708   82.8382   15.0335 N.2     1  UNL1       -0.2505
     19 C          62.0995   90.5040   11.5705 C.3     1  UNL1        0.0398
     20 C          61.3472   89.7311   10.5280 C.3     1  UNL1        0.0212
     21 C          60.0521   90.1030   11.1870 C.3     1  UNL1        0.0044
     22 C          62.6424   89.3592    9.8690 C.3     1  UNL1        0.0044
     23 C          60.5949   88.9582    9.4856 C.ar    1  UNL1       -0.0244
     24 C          60.0946   89.6517    8.2533 C.ar    1  UNL1        0.0250
     25 C          59.3423   88.8788    7.2109 C.ar    1  UNL1        0.1398
     26 F          58.8420   89.5723    5.9785 F       1  UNL1       -0.2042
     27 C          59.0903   87.4123    7.4008 C.ar    1  UNL1        0.0293
     28 C          59.5906   86.7188    8.6332 C.ar    1  UNL1       -0.0023
     29 C          60.3429   87.4918    9.6756 C.ar    1  UNL1       -0.0257
     30 C          60.8432   86.7983   10.9080 C.3     1  UNL1        0.0307
@<TRIPOS>BOND
     1     9    10    1
     2    10    11    2
     3    11    12    1
     4    12    13    2
     5    13    14    1
     6    14     8    1
     7     8     1    1
     8     1     2    1
     9     1    19    1
    10    19    20    1
    11    20    21    1
    12    20    22    1
    13    20    23    1
    14    23    24   ar
    15    24    25   ar
    16    25    26    1
    17    25    27   ar
    18    27    28   ar
    19    28    29   ar
    20    29    30    1
    21     1     4    1
    22     4     5    1
    23     4     6    1
    24     4     7    1
    25    14    15    2
    26    15    16    1
    27    16    17    1
    28    17    18    2
    29    18    10    1
    30    16    12    1
    31    29    23   ar
    32     2     3    1
@<TRIPOS>MOLECULE
*****
 30 32 0 0 0
SMALL
GASTEIGER

@<TRIPOS>ATOM
      1 C          62.1302   88.5595   11.5506 C.3     1  UNL1        0.1811
      2 O          63.3326   88.1303   12.3380 O.3     1  UNL1       -0.3784
      3 H          63.4956   88.7666   13.0518 H       1  UNL1        0.2106
      4 C          60.9278   88.9886   10.7631 C.3     1  UNL1        0.4197
      5 F          59.7254   89.4176    9.9756 F       1  UNL1       -0.1676
      6 F          61.8124   89.7719    9.8391 F       1  UNL1       -0.1676
      7 F          60.0432   88.2052   11.6870 F       1  UNL1       -0.1676
      8 C          61.9724   89.7548   12.4429 C.3     1  UNL1        0.0807
      9 C          67.9793   93.3524   15.9920 C.3     1  UNL1        0.0521
     10 C          67.0280   92.8988   14.9247 C.2     1  UNL1        0.0589
     11 C          65.8915   91.9838   15.2725 C.2     1  UNL1        0.0127
     12 C          64.9402   91.5302   14.2051 C.2     1  UNL1        0.0078
     13 C          63.7365   90.6360   14.2474 C.2     1  UNL1        0.0124
     14 C          63.1779   90.5450   12.8583 C.2     1  UNL1        0.0568
     15 N          64.0362   91.3827   11.9576 N.2     1  UNL1       -0.2661
     16 C          65.1254   91.9916   12.7900 C.3     1  UNL1        0.1660
     17 C          66.2620   92.9067   12.4421 C.2     1  UNL1        0.1006
     18 N          67.2132   93.3603   13.5095 N.2     1  UNL1       -0.2505
     19 C          62.2880   87.3641   10.6583 C.3     1  UNL1        0.0398
     20 C          62.4845   86.0025   11.2562 C.3     1  UNL1        0.0212
     21 C          61.5019   85.4310   10.2775 C.3     1  UNL1        0.0044
     22 C          63.4671   86.5741   12.2350 C.3     1  UNL1        0.0044
     23 C          62.6809   84.6409   11.8541 C.ar    1  UNL1       -0.0244
     24 C          62.2684   84.3778   13.2721 C.ar    1  UNL1        0.0250
     25 C          62.4648   83.0163   13.8700 C.ar    1  UNL1        0.1398
     26 F          62.0524   82.7532   15.2880 F       1  UNL1       -0.2042
     27 C          63.0737   81.9177   13.0499 C.ar    1  UNL1        0.0293
     28 C          63.4861   82.1808   11.6319 C.ar    1  UNL1       -0.0023
     29 C          63.2897   83.5425   11.0340 C.ar    1  UNL1       -0.0257
     30 C          63.7021   83.8055    9.6160 C.3     1  UNL1        0.0307
@<TRIPOS>BOND
     1     9    10    1
     2    10    11    2
     3    11    12    1
     4    12    13    2
     5    13    14    1
     6    14     8    1
     7     8     1    1
     8     1     2    1
     9     1    19    1
    10    19    20    1
    11    20    21    1
    12    20    22    1
    13    20    23    1
    14    23    24   ar
    15    24    25   ar
    16    25    26    1
    17    25    27   ar
    18    27    28   ar
    19    28    29   ar
    20    29    30    1
    21     1     4    1
    22     4     5    1
    23     4     6    1
    24     4     7    1
    25    14    15    2
    26    15    16    1
    27    16    17    1
    28    17    18    2
    29    18    10    1
    30    16    12    1
    31    29    23   ar
    32     2     3    1
@<TRIPOS>MOLECULE
*****
 30 32 0 0 0
SMALL
GASTEIGER

@<TRIPOS>ATOM
      1 C          61.9071   89.1037   11.3962 C.3     1  UNL1        0.1811
      2 O          63.1374   88.3947   11.8794 O.3     1  UNL1       -0.3784
      3 H          63.2875   87.6030   11.3394 H       1  UNL1        0.2106
      4 C          60.6767   89.8128   10.9131 C.3     1  UNL1        0.4197
      5 F          59.4464   90.5219   10.4300 F       1  UNL1       -0.1676
      6 F          61.1482   89.6659    9.4967 F       1  UNL1       -0.1676
      7 F          60.2053   89.9598   12.3294 F       1  UNL1       -0.1676
      8 C          61.7182   88.0559   10.3397 C.3     1  UNL1        0.0807
      9 C          63.2827   80.8495   13.0305 C.3     1  UNL1        0.0521
     10 C          63.2317   82.0464   12.1279 C.2     1  UNL1        0.0589
     11 C          62.5388   83.2976   12.5800 C.2     1  UNL1        0.0127
     12 C          62.4877   84.4946   11.6774 C.2     1  UNL1        0.0078
     13 C          61.8808   85.8556   11.8487 C.2     1  UNL1        0.0124
     14 C          62.1477   86.6425   10.5998 C.2     1  UNL1        0.0568
     15 N          62.9195   85.7679    9.6568 N.2     1  UNL1       -0.2661
     16 C          63.1296   84.4403   10.3227 C.3     1  UNL1        0.1660
     17 C          63.8226   83.1891    9.8707 C.2     1  UNL1        0.1006
     18 N          63.8736   81.9922   10.7733 N.2     1  UNL1       -0.2505
     19 C          62.0960   90.1515   12.4528 C.3     1  UNL1        0.0398
     20 C          63.4566   90.7341   12.6966 C.3     1  UNL1        0.0212
     21 C          63.5668   91.0850   11.2424 C.3     1  UNL1        0.0044
     22 C          63.3464   90.3833   14.1508 C.3     1  UNL1        0.0044
     23 C          64.8172   91.3168   12.9402 C.ar    1  UNL1       -0.0244
     24 C          65.5736   90.9605   14.1856 C.ar    1  UNL1        0.0250
     25 C          66.9341   91.5431   14.4292 C.ar    1  UNL1        0.1398
     26 F          67.6905   91.1869   15.6746 F       1  UNL1       -0.2042
     27 C          67.5383   92.4821   13.4275 C.ar    1  UNL1        0.0293
     28 C          66.7819   92.8383   12.1821 C.ar    1  UNL1       -0.0023
     29 C          65.4213   92.2556   11.9385 C.ar    1  UNL1       -0.0257
     30 C          64.6649   92.6119   10.6931 C.3     1  UNL1        0.0307
@<TRIPOS>BOND
     1     9    10    1
     2    10    11    2
     3    11    12    1
     4    12    13    2
     5    13    14    1
     6    14     8    1
     7     8     1    1
     8     1     2    1
     9     1    19    1
    10    19    20    1
    11    20    21    1
    12    20    22    1
    13    20    23    1
    14    23    24   ar
    15    24    25   ar
    16    25    26    1
    17    25    27   ar
    18    27    28   ar
    19    28    29   ar
    20    29    30    1
    21     1     4    1
    22     4     5    1
    23     4     6    1
    24     4     7    1
    25    14    15    2
    26    15    16    1
    27    16    17    1
    28    17    18    2
    29    18    10    1
    30    16    12    1
    31    29    23   ar
    32     2     3    1
@<TRIPOS>MOLECULE
*****
 30 32 0 0 0
SMALL
GASTEIGER

@<TRIPOS>ATOM
      1 C          63.2357   86.7326   16.2193 C.3     1  UNL1        0.1811
      2 O          63.5661   86.6858   14.7569 O.3     1  UNL1       -0.3784
      3 H          63.3788   85.7989   14.4114 H       1  UNL1        0.2106
      4 C          62.9054   86.7794   17.6818 C.3     1  UNL1        0.4197
      5 F          62.5752   86.8263   19.1442 F       1  UNL1       -0.1676
      6 F          62.4236   85.3604   17.6185 F       1  UNL1       -0.1676
      7 F          63.3873   88.1985   17.7451 F       1  UNL1       -0.1676
      8 C          62.8119   85.2946   16.1696 C.3     1  UNL1        0.0807
      9 C          62.9249   80.1967   10.2013 C.3     1  UNL1        0.0521
     10 C          63.2674   81.3692   11.0719 C.2     1  UNL1        0.0589
     11 C          62.5190   81.5970   12.3516 C.2     1  UNL1        0.0127
     12 C          62.8615   82.7696   13.2223 C.2     1  UNL1        0.0078
     13 C          62.3014   83.2466   14.5295 C.2     1  UNL1        0.0124
     14 C          63.0463   84.4861   14.9281 C.2     1  UNL1        0.0568
     15 N          64.0665   84.7751   13.8673 N.2     1  UNL1       -0.2661
     16 C          63.9524   83.7143   12.8130 C.3     1  UNL1        0.1660
     17 C          64.7008   83.4864   11.5331 C.2     1  UNL1        0.1006
     18 N          64.3583   82.3139   10.6626 N.2     1  UNL1       -0.2505
     19 C          63.6596   88.1705   16.2690 C.3     1  UNL1        0.0398
     20 C          63.7412   88.9726   15.0040 C.3     1  UNL1        0.0212
     21 C          62.5342   89.7579   15.4241 C.3     1  UNL1        0.0044
     22 C          64.9482   88.1872   14.5839 C.3     1  UNL1        0.0044
     23 C          63.8227   89.7746   13.7391 C.ar    1  UNL1       -0.0244
     24 C          63.0726   89.3291   12.5189 C.ar    1  UNL1        0.0250
     25 C          63.1542   90.1312   11.2540 C.ar    1  UNL1        0.1398
     26 F          62.4041   89.6857   10.0338 F       1  UNL1       -0.2042
     27 C          63.9859   91.3787   11.2092 C.ar    1  UNL1        0.0293
     28 C          64.7360   91.8242   12.4294 C.ar    1  UNL1       -0.0023
     29 C          64.6544   91.0221   13.6944 C.ar    1  UNL1       -0.0257
     30 C          65.4045   91.4676   14.9146 C.3     1  UNL1        0.0307
@<TRIPOS>BOND
     1     9    10    1
     2    10    11    2
     3    11    12    1
     4    12    13    2
     5    13    14    1
     6    14     8    1
     7     8     1    1
     8     1     2    1
     9     1    19    1
    10    19    20    1
    11    20    21    1
    12    20    22    1
    13    20    23    1
    14    23    24   ar
    15    24    25   ar
    16    25    26    1
    17    25    27   ar
    18    27    28   ar
    19    28    29   ar
    20    29    30    1
    21     1     4    1
    22     4     5    1
    23     4     6    1
    24     4     7    1
    25    14    15    2
    26    15    16    1
    27    16    17    1
    28    17    18    2
    29    18    10    1
    30    16    12    1
    31    29    23   ar
    32     2     3    1
