@<TRIPOS>MOLECULE
*****
 47 51 0 0 0
SMALL
GASTEIGER

@<TRIPOS>ATOM
      1 C          62.6459   90.5378   12.7674 C.3     1  UNL1        0.1934
      2 N          63.7420   91.1531   13.5859 N.ar    1  UNL1       -0.2979
      3 C          64.7827   92.0074   12.9245 C.ar    1  UNL1        0.0786
      4 C          65.8788   92.6227   13.7429 C.ar    1  UNL1        0.0574
      5 C          65.9343   92.3837   15.2228 C.ar    1  UNL1        0.2786
      6 O          67.0304   92.9991   16.0413 O.2     1  UNL1       -0.2654
      7 N          64.8937   91.5295   15.8841 N.ar    1  UNL1       -0.1847
      8 C          63.7976   90.9142   15.0657 C.ar    1  UNL1        0.1750
      9 C          66.9194   93.4769   13.0816 C.3     1  UNL1        0.0622
     10 C          66.6509   94.0773   11.7334 C.ar    1  UNL1        0.0220
     11 C          66.9058   93.4206   10.4092 C.ar    1  UNL1        0.1177
     12 N          66.4928   94.3772    9.3302 N.ar    1  UNL1       -0.1679
     13 N          65.9826   95.6253    9.9876 N.ar    1  UNL1       -0.2477
     14 C          65.4655   96.8446    9.2834 C.3     1  UNL1        0.1537
     15 C          66.0804   95.4399   11.4729 C.ar    1  UNL1        0.0927
     16 S          62.7569   90.0600   15.7270 S.3     1  UNL1       -0.0724
     17 C          63.1589   89.0639   16.7741 C.3     1  UNL1        0.0913
     18 C          63.4169   87.6367   16.3917 C.ar    1  UNL1       -0.0108
     19 C          62.7639   86.5251   17.1584 C.ar    1  UNL1       -0.0011
     20 C          63.0219   85.0977   16.7760 C.ar    1  UNL1        0.0293
     21 C          63.9330   84.7820   15.6270 C.ar    1  UNL1        0.1401
     22 F          64.1910   83.3547   15.2446 F       1  UNL1       -0.2042
     23 C          64.5861   85.8937   14.8603 C.ar    1  UNL1        0.0293
     24 C          64.3281   87.3210   15.2427 C.ar    1  UNL1       -0.0011
     25 N          62.2662   89.2211   10.5601 N.am    1  UNL1       -0.2738
     26 C          62.9361   89.3519   11.8958 C.2     1  UNL1        0.2490
     27 O          63.8960   88.2970   12.3600 O.2     1  UNL1       -0.2727
     28 C          61.3062   90.2761   10.0960 C.3     1  UNL1        0.0952
     29 C          59.8570   89.9396    9.9047 C.3     1  UNL1        0.0388
     30 C          59.4532   88.5409    9.5436 C.3     1  UNL1        0.0739
     31 C          59.3277   86.6667    7.7487 C.3     1  UNL1        0.0897
     32 N          59.4057   88.1218    8.1041 N.3     1  UNL1       -0.2703
     33 C          59.4363   89.1580    7.0199 C.3     1  UNL1        0.0897
     34 C          62.5563   88.0353    9.6886 C.3     1  UNL1        0.1202
     35 C          62.5412   86.6536   10.2725 C.ar    1  UNL1       -0.0023
     36 C          63.0199   85.4894    9.4569 C.ar    1  UNL1       -0.0026
     37 C          63.0048   84.1078   10.0408 C.ar    1  UNL1       -0.0003
     38 C          62.5108   83.8905   11.4404 C.ar    1  UNL1       -0.0000
     39 C          62.0320   85.0547   12.2560 C.ar    1  UNL1       -0.0003
     40 C          62.0472   86.4363   11.6721 C.ar    1  UNL1       -0.0026
     41 C          62.4957   82.5089   12.0243 C.ar    1  UNL1        0.0001
     42 C          62.0749   82.3013   13.4490 C.ar    1  UNL1        0.0009
     43 C          62.0597   80.9197   14.0330 C.ar    1  UNL1        0.0114
     44 C          62.4654   79.7456   13.1921 C.ar    1  UNL1        0.0577
     45 CL         62.4503   78.3640   13.7760 Cl      1  UNL1       -0.0822
     46 C          62.8863   79.9532   11.7674 C.ar    1  UNL1        0.0114
     47 C          62.9014   81.3348   11.1835 C.ar    1  UNL1        0.0009
@<TRIPOS>BOND
     1    31    32    1
     2    32    33    1
     3    32    30    1
     4    30    29    1
     5    29    28    1
     6    28    25    1
     7    25    34    1
     8    34    35    1
     9    35    36   ar
    10    36    37   ar
    11    37    38   ar
    12    38    41    1
    13    41    42   ar
    14    42    43   ar
    15    43    44   ar
    16    44    45    1
    17    44    46   ar
    18    46    47   ar
    19    38    39   ar
    20    39    40   ar
    21    25    26   am
    22    26    27    2
    23    26     1    1
    24     1     2    1
    25     2     3   ar
    26     3     4   ar
    27     4     9    1
    28     9    10    1
    29    10    11   ar
    30    11    12   ar
    31    12    13   ar
    32    13    14    1
    33    13    15   ar
    34     4     5   ar
    35     5     6    2
    36     5     7   ar
    37     7     8   ar
    38     8    16    1
    39    16    17    1
    40    17    18    1
    41    18    19   ar
    42    19    20   ar
    43    20    21   ar
    44    21    22    1
    45    21    23   ar
    46    23    24   ar
    47    40    35   ar
    48     8     2   ar
    49    24    18   ar
    50    47    41   ar
    51    15    10   ar
@<TRIPOS>MOLECULE
*****
 47 51 0 0 0
SMALL
GASTEIGER

@<TRIPOS>ATOM
      1 C          60.3958   87.6762   11.3496 C.3     1  UNL1        0.1934
      2 N          61.0395   86.9345   10.2158 N.ar    1  UNL1       -0.2979
      3 C          61.9753   85.7968   10.4991 C.ar    1  UNL1        0.0786
      4 C          62.6190   85.0551    9.3653 C.ar    1  UNL1        0.0574
      5 C          62.3269   85.4510    7.9482 C.ar    1  UNL1        0.2786
      6 O          62.9706   84.7092    6.8145 O.2     1  UNL1       -0.2654
      7 N          61.3911   86.5885    7.6650 N.ar    1  UNL1       -0.1847
      8 C          60.7474   87.3303    8.7988 C.ar    1  UNL1        0.1750
      9 C          63.5547   83.9175    9.6485 C.3     1  UNL1        0.0622
     10 C          63.5711   83.2801   11.0063 C.ar    1  UNL1        0.0220
     11 C          64.7169   83.2962   11.9741 C.ar    1  UNL1        0.1177
     12 N          64.2985   82.5407   13.2006 N.ar    1  UNL1       -0.1679
     13 N          62.8939   82.0576   12.9907 N.ar    1  UNL1       -0.2477
     14 C          62.0816   81.2580   13.9658 C.3     1  UNL1        0.1537
     15 C          62.4444   82.5146   11.6346 C.ar    1  UNL1        0.0927
     16 S          59.8117   88.4679    8.5156 S.3     1  UNL1       -0.0724
     17 C          59.0362   88.4994    7.2319 C.3     1  UNL1        0.0913
     18 C          59.1691   89.6703    6.3039 C.ar    1  UNL1       -0.0108
     19 C          60.5257   90.1042    5.8335 C.ar    1  UNL1       -0.0011
     20 C          60.6587   91.2752    4.9054 C.ar    1  UNL1        0.0293
     21 C          59.4350   92.0123    4.4479 C.ar    1  UNL1        0.1401
     22 F          59.5679   93.1832    3.5200 F       1  UNL1       -0.2042
     23 C          58.0784   91.5783    4.9185 C.ar    1  UNL1        0.0293
     24 C          57.9455   90.4074    5.8464 C.ar    1  UNL1       -0.0011
     25 N          62.3692   88.4807   12.8358 N.am    1  UNL1       -0.2738
     26 C          61.1364   88.7848   12.0371 C.2     1  UNL1        0.2490
     27 O          60.6443   90.1974   11.9259 O.2     1  UNL1       -0.2727
     28 C          62.8613   87.0680   12.9469 C.3     1  UNL1        0.0952
     29 C          64.1304   86.7722   13.6897 C.3     1  UNL1        0.0388
     30 C          64.1748   86.9088   15.1827 C.3     1  UNL1        0.0739
     31 C          63.0661   84.6120   15.6783 C.3     1  UNL1        0.0897
     32 N          63.2945   86.0494   16.0410 N.3     1  UNL1       -0.2703
     33 C          62.6427   86.6276   17.2620 C.3     1  UNL1        0.0897
     34 C          63.1098   89.5892   13.5232 C.3     1  UNL1        0.1202
     35 C          63.8276   90.6273   12.7125 C.ar    1  UNL1       -0.0023
     36 C          64.9345   91.4287   13.3310 C.ar    1  UNL1       -0.0026
     37 C          65.6522   92.4667   12.5203 C.ar    1  UNL1       -0.0003
     38 C          65.2630   92.7034   11.0911 C.ar    1  UNL1       -0.0000
     39 C          64.1561   91.9021   10.4727 C.ar    1  UNL1       -0.0003
     40 C          63.4384   90.8640   11.2834 C.ar    1  UNL1       -0.0026
     41 C          65.9808   93.7416   10.2804 C.ar    1  UNL1        0.0001
     42 C          65.4202   95.1287   10.1726 C.ar    1  UNL1        0.0009
     43 C          66.1380   96.1668    9.3619 C.ar    1  UNL1        0.0114
     44 C          67.4163   95.8177    8.6590 C.ar    1  UNL1        0.0577
     45 CL         68.1341   96.8557    7.8483 Cl      1  UNL1       -0.0822
     46 C          67.9768   94.4305    8.7668 C.ar    1  UNL1        0.0114
     47 C          67.2591   93.3925    9.5775 C.ar    1  UNL1        0.0009
@<TRIPOS>BOND
     1    31    32    1
     2    32    33    1
     3    32    30    1
     4    30    29    1
     5    29    28    1
     6    28    25    1
     7    25    34    1
     8    34    35    1
     9    35    36   ar
    10    36    37   ar
    11    37    38   ar
    12    38    41    1
    13    41    42   ar
    14    42    43   ar
    15    43    44   ar
    16    44    45    1
    17    44    46   ar
    18    46    47   ar
    19    38    39   ar
    20    39    40   ar
    21    25    26   am
    22    26    27    2
    23    26     1    1
    24     1     2    1
    25     2     3   ar
    26     3     4   ar
    27     4     9    1
    28     9    10    1
    29    10    11   ar
    30    11    12   ar
    31    12    13   ar
    32    13    14    1
    33    13    15   ar
    34     4     5   ar
    35     5     6    2
    36     5     7   ar
    37     7     8   ar
    38     8    16    1
    39    16    17    1
    40    17    18    1
    41    18    19   ar
    42    19    20   ar
    43    20    21   ar
    44    21    22    1
    45    21    23   ar
    46    23    24   ar
    47    40    35   ar
    48     8     2   ar
    49    24    18   ar
    50    47    41   ar
    51    15    10   ar
@<TRIPOS>MOLECULE
*****
 47 51 0 0 0
SMALL
GASTEIGER

@<TRIPOS>ATOM
      1 C          63.6493   88.4656   13.1995 C.3     1  UNL1        0.1934
      2 N          64.0579   89.6145   14.0732 N.ar    1  UNL1       -0.2979
      3 C          64.9793   90.6714   13.5402 C.ar    1  UNL1        0.0786
      4 C          65.3879   91.8202   14.4138 C.ar    1  UNL1        0.0574
      5 C          64.8751   91.9121   15.8205 C.ar    1  UNL1        0.2786
      6 O          65.2837   93.0609   16.6942 O.2     1  UNL1       -0.2654
      7 N          63.9537   90.8552   16.3534 N.ar    1  UNL1       -0.1847
      8 C          63.5452   89.7064   15.4798 C.ar    1  UNL1        0.1750
      9 C          66.3093   92.8771   13.8809 C.3     1  UNL1        0.0622
     10 C          66.5549   92.9831   12.4049 C.ar    1  UNL1        0.0220
     11 C          65.7505   93.7949   11.4333 C.ar    1  UNL1        0.1177
     12 N          66.3465   93.6096   10.0694 N.ar    1  UNL1       -0.1679
     13 N          67.5193   92.6831   10.1979 N.ar    1  UNL1       -0.2477
     14 C          68.4073   92.2244    9.0795 C.3     1  UNL1        0.1537
     15 C          67.6480   92.2960   11.6414 C.ar    1  UNL1        0.0927
     16 S          62.6238   88.6495   16.0127 S.3     1  UNL1       -0.0724
     17 C          63.1769   87.5030   16.8063 C.3     1  UNL1        0.0913
     18 C          63.4348   86.1845   16.1393 C.ar    1  UNL1       -0.0108
     19 C          64.6303   86.0154   15.2493 C.ar    1  UNL1       -0.0011
     20 C          64.8882   84.6968   14.5822 C.ar    1  UNL1        0.0293
     21 C          63.9506   83.5474   14.8052 C.ar    1  UNL1        0.1401
     22 F          64.2085   82.2288   14.1382 F       1  UNL1       -0.2042
     23 C          62.7551   83.7165   15.6953 C.ar    1  UNL1        0.0293
     24 C          62.4972   85.0351   16.3623 C.ar    1  UNL1       -0.0011
     25 N          61.8697   87.2947   11.7122 N.am    1  UNL1       -0.2738
     26 C          62.3116   88.4782   12.5210 C.2     1  UNL1        0.2490
     27 O          61.4157   89.6742   12.6512 O.2     1  UNL1       -0.2727
     28 C          62.7656   86.0986   11.5820 C.3     1  UNL1        0.0952
     29 C          62.2357   84.8252   10.9926 C.3     1  UNL1        0.0388
     30 C          62.4114   83.5289   11.7266 C.3     1  UNL1        0.0739
     31 C          64.5579   82.8729   10.4181 C.3     1  UNL1        0.0897
     32 N          63.3280   82.4753   11.1791 N.3     1  UNL1       -0.2703
     33 C          63.0147   81.0240   11.3928 C.3     1  UNL1        0.0897
     34 C          60.5321   87.3072   11.0337 C.3     1  UNL1        0.1202
     35 C          60.3345   88.1064    9.7798 C.ar    1  UNL1       -0.0023
     36 C          60.8186   89.5243    9.7101 C.ar    1  UNL1       -0.0026
     37 C          60.6211   90.3235    8.4562 C.ar    1  UNL1       -0.0003
     38 C          59.9395   89.7046    7.2719 C.ar    1  UNL1       -0.0000
     39 C          59.4554   88.2866    7.3416 C.ar    1  UNL1       -0.0003
     40 C          59.6529   87.4875    8.5955 C.ar    1  UNL1       -0.0026
     41 C          59.7419   90.5038    6.0180 C.ar    1  UNL1        0.0001
     42 C          58.3680   90.9647    5.6309 C.ar    1  UNL1        0.0009
     43 C          58.1705   91.7639    4.3770 C.ar    1  UNL1        0.0114
     44 C          59.3470   92.1021    3.5101 C.ar    1  UNL1        0.0577
     45 CL         59.1495   92.9013    2.2562 Cl      1  UNL1       -0.0822
     46 C          60.7210   91.6412    3.8972 C.ar    1  UNL1        0.0114
     47 C          60.9184   90.8420    5.1511 C.ar    1  UNL1        0.0009
@<TRIPOS>BOND
     1    31    32    1
     2    32    33    1
     3    32    30    1
     4    30    29    1
     5    29    28    1
     6    28    25    1
     7    25    34    1
     8    34    35    1
     9    35    36   ar
    10    36    37   ar
    11    37    38   ar
    12    38    41    1
    13    41    42   ar
    14    42    43   ar
    15    43    44   ar
    16    44    45    1
    17    44    46   ar
    18    46    47   ar
    19    38    39   ar
    20    39    40   ar
    21    25    26   am
    22    26    27    2
    23    26     1    1
    24     1     2    1
    25     2     3   ar
    26     3     4   ar
    27     4     9    1
    28     9    10    1
    29    10    11   ar
    30    11    12   ar
    31    12    13   ar
    32    13    14    1
    33    13    15   ar
    34     4     5   ar
    35     5     6    2
    36     5     7   ar
    37     7     8   ar
    38     8    16    1
    39    16    17    1
    40    17    18    1
    41    18    19   ar
    42    19    20   ar
    43    20    21   ar
    44    21    22    1
    45    21    23   ar
    46    23    24   ar
    47    40    35   ar
    48     8     2   ar
    49    24    18   ar
    50    47    41   ar
    51    15    10   ar
@<TRIPOS>MOLECULE
*****
 47 51 0 0 0
SMALL
GASTEIGER

@<TRIPOS>ATOM
      1 C          63.5347   89.8099   13.5624 C.3     1  UNL1        0.1934
      2 N          62.8055   89.9208   12.2563 N.ar    1  UNL1       -0.2979
      3 C          61.7388   88.9259   11.9060 C.ar    1  UNL1        0.0786
      4 C          61.0096   89.0368   10.5999 C.ar    1  UNL1        0.0574
      5 C          61.3470   90.1426    9.6440 C.ar    1  UNL1        0.2786
      6 O          60.6178   90.2535    8.3379 O.2     1  UNL1       -0.2654
      7 N          62.4136   91.1374    9.9944 N.ar    1  UNL1       -0.1847
      8 C          63.1428   91.0265   11.3005 C.ar    1  UNL1        0.1750
      9 C          59.9430   88.0420   10.2496 C.3     1  UNL1        0.0622
     10 C          60.1281   87.1259    9.0763 C.ar    1  UNL1        0.0220
     11 C          59.0871   86.7839    8.0519 C.ar    1  UNL1        0.1177
     12 N          59.7023   85.8375    7.0640 N.ar    1  UNL1       -0.1679
     13 N          61.1235   85.5946    7.4778 N.ar    1  UNL1       -0.2477
     14 C          62.1086   84.7107    6.7719 C.3     1  UNL1        0.1537
     15 C          61.3866   86.3909    8.7215 C.ar    1  UNL1        0.0927
     16 S          64.2094   92.0213   11.6508 S.3     1  UNL1       -0.0724
     17 C          65.5541   91.9429   10.9906 C.3     1  UNL1        0.0913
     18 C          66.1632   93.1708   10.3815 C.ar    1  UNL1       -0.0108
     19 C          65.4638   94.4925   10.4997 C.ar    1  UNL1       -0.0011
     20 C          66.0730   95.7205    9.8905 C.ar    1  UNL1        0.0293
     21 C          67.3814   95.6268    9.1631 C.ar    1  UNL1        0.1401
     22 F          67.9905   96.8547    8.5539 F       1  UNL1       -0.2042
     23 C          68.0808   94.3050    9.0449 C.ar    1  UNL1        0.0293
     24 C          67.4717   93.0771    9.6541 C.ar    1  UNL1       -0.0011
     25 N          63.6745   88.3358   15.6972 N.am    1  UNL1       -0.2738
     26 C          63.7243   88.4672   14.2038 C.2     1  UNL1        0.2490
     27 O          63.9638   87.2562   13.3519 O.2     1  UNL1       -0.2727
     28 C          63.4351   89.5470   16.5492 C.3     1  UNL1        0.0952
     29 C          63.6782   90.9173   15.9898 C.3     1  UNL1        0.0388
     30 C          64.7736   91.7736   16.5526 C.3     1  UNL1        0.0739
     31 C          66.9752   93.0981   16.1671 C.3     1  UNL1        0.0897
     32 N          66.0198   92.0180   15.7542 N.3     1  UNL1       -0.2703
     33 C          66.3103   91.1824   14.5429 C.3     1  UNL1        0.0897
     34 C          63.8642   86.9932   16.3387 C.3     1  UNL1        0.1202
     35 C          63.6798   85.7430   15.5305 C.ar    1  UNL1       -0.0023
     36 C          64.8736   85.0337   14.9634 C.ar    1  UNL1       -0.0026
     37 C          64.6892   83.7836   14.1552 C.ar    1  UNL1       -0.0003
     38 C          63.3110   83.2428   13.9141 C.ar    1  UNL1       -0.0000
     39 C          62.1172   83.9522   14.4812 C.ar    1  UNL1       -0.0003
     40 C          62.3016   85.2023   15.2894 C.ar    1  UNL1       -0.0026
     41 C          63.1266   81.9927   13.1059 C.ar    1  UNL1        0.0001
     42 C          63.2662   82.0373   11.6131 C.ar    1  UNL1        0.0009
     43 C          63.0819   80.7871   10.8049 C.ar    1  UNL1        0.0114
     44 C          62.7578   79.4924   11.4895 C.ar    1  UNL1        0.0577
     45 CL         62.5735   78.2422   10.6814 Cl      1  UNL1       -0.0822
     46 C          62.6182   79.4478   12.9824 C.ar    1  UNL1        0.0114
     47 C          62.8026   80.6980   13.7905 C.ar    1  UNL1        0.0009
@<TRIPOS>BOND
     1    31    32    1
     2    32    33    1
     3    32    30    1
     4    30    29    1
     5    29    28    1
     6    28    25    1
     7    25    34    1
     8    34    35    1
     9    35    36   ar
    10    36    37   ar
    11    37    38   ar
    12    38    41    1
    13    41    42   ar
    14    42    43   ar
    15    43    44   ar
    16    44    45    1
    17    44    46   ar
    18    46    47   ar
    19    38    39   ar
    20    39    40   ar
    21    25    26   am
    22    26    27    2
    23    26     1    1
    24     1     2    1
    25     2     3   ar
    26     3     4   ar
    27     4     9    1
    28     9    10    1
    29    10    11   ar
    30    11    12   ar
    31    12    13   ar
    32    13    14    1
    33    13    15   ar
    34     4     5   ar
    35     5     6    2
    36     5     7   ar
    37     7     8   ar
    38     8    16    1
    39    16    17    1
    40    17    18    1
    41    18    19   ar
    42    19    20   ar
    43    20    21   ar
    44    21    22    1
    45    21    23   ar
    46    23    24   ar
    47    40    35   ar
    48     8     2   ar
    49    24    18   ar
    50    47    41   ar
    51    15    10   ar
@<TRIPOS>MOLECULE
*****
 47 51 0 0 0
SMALL
GASTEIGER

@<TRIPOS>ATOM
      1 C          63.5612   88.5343   13.0273 C.3     1  UNL1        0.1934
      2 N          63.9415   89.5619   14.0518 N.ar    1  UNL1       -0.2979
      3 C          64.7592   90.7538   13.6508 C.ar    1  UNL1        0.0786
      4 C          65.1395   91.7814   14.6752 C.ar    1  UNL1        0.0574
      5 C          64.7021   91.6170   16.1007 C.ar    1  UNL1        0.2786
      6 O          65.0824   92.6446   17.1251 O.2     1  UNL1       -0.2654
      7 N          63.8844   90.4251   16.5016 N.ar    1  UNL1       -0.1847
      8 C          63.5041   89.3975   15.4771 C.ar    1  UNL1        0.1750
      9 C          65.9571   92.9733   14.2743 C.3     1  UNL1        0.0622
     10 C          66.4383   93.1115   12.8603 C.ar    1  UNL1        0.0220
     11 C          66.2196   94.2960   11.9663 C.ar    1  UNL1        0.1177
     12 N          66.8688   94.0060   10.6455 N.ar    1  UNL1       -0.1679
     13 N          67.4887   92.6422   10.7232 N.ar    1  UNL1       -0.2477
     14 C          68.2423   91.9524    9.6249 C.3     1  UNL1        0.1537
     15 C          67.2226   92.0894   12.0920 C.ar    1  UNL1        0.0927
     16 S          62.6865   88.2056   15.8780 S.3     1  UNL1       -0.0724
     17 C          63.3428   87.0395   16.5559 C.3     1  UNL1        0.0913
     18 C          63.5460   85.7548   15.8088 C.ar    1  UNL1       -0.0108
     19 C          62.5557   84.6377   15.9548 C.ar    1  UNL1       -0.0011
     20 C          62.7588   83.3529   15.2076 C.ar    1  UNL1        0.0293
     21 C          63.9522   83.1853   14.3146 C.ar    1  UNL1        0.1401
     22 F          64.1554   81.9006   13.5675 F       1  UNL1       -0.2042
     23 C          64.9426   84.3025   14.1686 C.ar    1  UNL1        0.0293
     24 C          64.7394   85.5872   14.9157 C.ar    1  UNL1       -0.0011
     25 N          61.7445   87.4609   11.5115 N.am    1  UNL1       -0.2738
     26 C          62.2227   88.6062   12.3539 C.2     1  UNL1        0.2490
     27 O          61.3626   89.8234   12.5228 O.2     1  UNL1       -0.2727
     28 C          62.6047   86.2437   11.3426 C.3     1  UNL1        0.0952
     29 C          62.3909   85.3308   10.1718 C.3     1  UNL1        0.0388
     30 C          62.8001   85.7669    8.7962 C.3     1  UNL1        0.0739
     31 C          62.9270   84.4956    6.5340 C.3     1  UNL1        0.0897
     32 N          62.1192   85.1870    7.5919 N.3     1  UNL1       -0.2703
     33 C          60.6305   85.2985    7.4457 C.3     1  UNL1        0.0897
     34 C          60.4061   87.5328   10.8381 C.3     1  UNL1        0.1202
     35 C          60.2447   88.3218    9.5725 C.ar    1  UNL1       -0.0023
     36 C          59.3195   87.8339    8.4974 C.ar    1  UNL1       -0.0026
     37 C          59.1581   88.6228    7.2319 C.ar    1  UNL1       -0.0003
     38 C          59.9219   89.8997    7.0416 C.ar    1  UNL1       -0.0000
     39 C          60.8470   90.3876    8.1168 C.ar    1  UNL1       -0.0003
     40 C          61.0084   89.5987    9.3822 C.ar    1  UNL1       -0.0026
     41 C          59.7605   90.6887    5.7761 C.ar    1  UNL1        0.0001
     42 C          60.9586   91.0029    4.9302 C.ar    1  UNL1        0.0009
     43 C          60.7972   91.7919    3.6646 C.ar    1  UNL1        0.0114
     44 C          59.4375   92.2666    3.2450 C.ar    1  UNL1        0.0577
     45 CL         59.2760   93.0555    1.9796 Cl      1  UNL1       -0.0822
     46 C          58.2393   91.9523    4.0910 C.ar    1  UNL1        0.0114
     47 C          58.4008   91.1634    5.3565 C.ar    1  UNL1        0.0009
@<TRIPOS>BOND
     1    31    32    1
     2    32    33    1
     3    32    30    1
     4    30    29    1
     5    29    28    1
     6    28    25    1
     7    25    34    1
     8    34    35    1
     9    35    36   ar
    10    36    37   ar
    11    37    38   ar
    12    38    41    1
    13    41    42   ar
    14    42    43   ar
    15    43    44   ar
    16    44    45    1
    17    44    46   ar
    18    46    47   ar
    19    38    39   ar
    20    39    40   ar
    21    25    26   am
    22    26    27    2
    23    26     1    1
    24     1     2    1
    25     2     3   ar
    26     3     4   ar
    27     4     9    1
    28     9    10    1
    29    10    11   ar
    30    11    12   ar
    31    12    13   ar
    32    13    14    1
    33    13    15   ar
    34     4     5   ar
    35     5     6    2
    36     5     7   ar
    37     7     8   ar
    38     8    16    1
    39    16    17    1
    40    17    18    1
    41    18    19   ar
    42    19    20   ar
    43    20    21   ar
    44    21    22    1
    45    21    23   ar
    46    23    24   ar
    47    40    35   ar
    48     8     2   ar
    49    24    18   ar
    50    47    41   ar
    51    15    10   ar
@<TRIPOS>MOLECULE
*****
 47 51 0 0 0
SMALL
GASTEIGER

@<TRIPOS>ATOM
      1 C          60.3233   87.3842   11.1718 C.3     1  UNL1        0.1934
      2 N          60.9333   86.6657   10.0049 N.ar    1  UNL1       -0.2979
      3 C          61.9830   85.6189   10.2341 C.ar    1  UNL1        0.0786
      4 C          62.5930   84.9004    9.0672 C.ar    1  UNL1        0.0574
      5 C          62.1533   85.2287    7.6711 C.ar    1  UNL1        0.2786
      6 O          62.7633   84.5102    6.5042 O.2     1  UNL1       -0.2654
      7 N          61.1037   86.2755    7.4420 N.ar    1  UNL1       -0.1847
      8 C          60.4937   86.9940    8.6089 C.ar    1  UNL1        0.1750
      9 C          63.6427   83.8537    9.2963 C.3     1  UNL1        0.0622
     10 C          63.6765   83.0961   10.5905 C.ar    1  UNL1        0.0220
     11 C          64.6722   83.2841   11.6965 C.ar    1  UNL1        0.1177
     12 N          64.3316   82.3217   12.7954 N.ar    1  UNL1       -0.1679
     13 N          63.1253   81.5389   12.3687 N.ar    1  UNL1       -0.2477
     14 C          62.4436   80.4658   13.1649 C.3     1  UNL1        0.1537
     15 C          62.7204   82.0175   11.0060 C.ar    1  UNL1        0.0927
     16 S          59.4441   88.0407    8.3797 S.3     1  UNL1       -0.0724
     17 C          58.8109   88.1846    7.0275 C.3     1  UNL1        0.0913
     18 C          58.9926   89.4514    6.2452 C.ar    1  UNL1       -0.0108
     19 C          57.8011   90.2893    5.8873 C.ar    1  UNL1       -0.0011
     20 C          57.9829   91.5562    5.1049 C.ar    1  UNL1        0.0293
     21 C          59.3562   91.9851    4.6805 C.ar    1  UNL1        0.1401
     22 F          59.5379   93.2519    3.8982 F       1  UNL1       -0.2042
     23 C          60.5477   91.1471    5.0384 C.ar    1  UNL1        0.0293
     24 C          60.3659   89.8803    5.8208 C.ar    1  UNL1       -0.0011
     25 N          61.9846   89.3178   11.6734 N.am    1  UNL1       -0.2738
     26 C          60.5921   88.8457   11.3765 C.2     1  UNL1        0.2490
     27 O          59.4684   89.8351   11.2842 O.2     1  UNL1       -0.2727
     28 C          63.1083   88.3284   11.7656 C.3     1  UNL1        0.0952
     29 C          63.4053   87.6504   13.0702 C.3     1  UNL1        0.0388
     30 C          63.4165   86.1526   13.1515 C.3     1  UNL1        0.0739
     31 C          64.2854   85.8625   15.5827 C.3     1  UNL1        0.0897
     32 N          63.3383   85.4734   14.4867 N.3     1  UNL1       -0.2703
     33 C          62.3129   84.4050   14.7256 C.3     1  UNL1        0.0897
     34 C          62.2534   90.7793   11.8781 C.3     1  UNL1        0.1202
     35 C          63.4777   91.2193   12.6248 C.ar    1  UNL1       -0.0023
     36 C          63.6512   90.8459   14.0671 C.ar    1  UNL1       -0.0026
     37 C          64.8755   91.2859   14.8137 C.ar    1  UNL1       -0.0003
     38 C          65.9263   92.0994   14.1179 C.ar    1  UNL1       -0.0000
     39 C          65.7528   92.4728   12.6756 C.ar    1  UNL1       -0.0003
     40 C          64.5285   92.0327   11.9290 C.ar    1  UNL1       -0.0026
     41 C          67.1506   92.5394   14.8646 C.ar    1  UNL1        0.0001
     42 C          68.0018   91.5271   15.5722 C.ar    1  UNL1        0.0009
     43 C          69.2261   91.9672   16.3189 C.ar    1  UNL1        0.0114
     44 C          69.5992   93.4195   16.3579 C.ar    1  UNL1        0.0577
     45 CL         70.8235   93.8596   17.1045 Cl      1  UNL1       -0.0822
     46 C          68.7480   94.4318   15.6502 C.ar    1  UNL1        0.0114
     47 C          67.5237   93.9918   14.9036 C.ar    1  UNL1        0.0009
@<TRIPOS>BOND
     1    31    32    1
     2    32    33    1
     3    32    30    1
     4    30    29    1
     5    29    28    1
     6    28    25    1
     7    25    34    1
     8    34    35    1
     9    35    36   ar
    10    36    37   ar
    11    37    38   ar
    12    38    41    1
    13    41    42   ar
    14    42    43   ar
    15    43    44   ar
    16    44    45    1
    17    44    46   ar
    18    46    47   ar
    19    38    39   ar
    20    39    40   ar
    21    25    26   am
    22    26    27    2
    23    26     1    1
    24     1     2    1
    25     2     3   ar
    26     3     4   ar
    27     4     9    1
    28     9    10    1
    29    10    11   ar
    30    11    12   ar
    31    12    13   ar
    32    13    14    1
    33    13    15   ar
    34     4     5   ar
    35     5     6    2
    36     5     7   ar
    37     7     8   ar
    38     8    16    1
    39    16    17    1
    40    17    18    1
    41    18    19   ar
    42    19    20   ar
    43    20    21   ar
    44    21    22    1
    45    21    23   ar
    46    23    24   ar
    47    40    35   ar
    48     8     2   ar
    49    24    18   ar
    50    47    41   ar
    51    15    10   ar
@<TRIPOS>MOLECULE
*****
 47 51 0 0 0
SMALL
GASTEIGER

@<TRIPOS>ATOM
      1 C          63.4485   87.9886   12.3058 C.3     1  UNL1        0.1934
      2 N          63.5076   87.3871   13.6787 N.ar    1  UNL1       -0.2979
      3 C          63.6112   85.8996   13.8420 C.ar    1  UNL1        0.0786
      4 C          63.6703   85.2982   15.2148 C.ar    1  UNL1        0.0574
      5 C          63.6257   86.1842   16.4244 C.ar    1  UNL1        0.2786
      6 O          63.6848   85.5828   17.7973 O.2     1  UNL1       -0.2654
      7 N          63.5221   87.6717   16.2610 N.ar    1  UNL1       -0.1847
      8 C          63.4630   88.2731   14.8882 C.ar    1  UNL1        0.1750
      9 C          63.7740   83.8107   15.3782 C.3     1  UNL1        0.0622
     10 C          63.2578   82.9004   14.3035 C.ar    1  UNL1        0.0220
     11 C          62.0416   82.0274   14.3964 C.ar    1  UNL1        0.1177
     12 N          61.8994   81.2907   13.0976 N.ar    1  UNL1       -0.1679
     13 N          63.0278   81.7084   12.2018 N.ar    1  UNL1       -0.2477
     14 C          63.2734   81.2175   10.8059 C.3     1  UNL1        0.1537
     15 C          63.8673   82.7032   12.9471 C.ar    1  UNL1        0.0927
     16 S          63.3593   89.7606   14.7248 S.3     1  UNL1       -0.0724
     17 C          64.5681   90.6240   14.9331 C.3     1  UNL1        0.0913
     18 C          65.2154   91.3030   13.7627 C.ar    1  UNL1       -0.0108
     19 C          64.4274   91.5539   12.5113 C.ar    1  UNL1       -0.0011
     20 C          65.0748   92.2329   11.3408 C.ar    1  UNL1        0.0293
     21 C          66.5101   92.6610   11.4218 C.ar    1  UNL1        0.1401
     22 F          67.1574   93.3400   10.2514 F       1  UNL1       -0.2042
     23 C          67.2981   92.4101   12.6733 C.ar    1  UNL1        0.0293
     24 C          66.6508   91.7311   13.8437 C.ar    1  UNL1       -0.0011
     25 N          61.3298   87.1782   11.0391 N.am    1  UNL1       -0.2738
     26 C          62.1209   88.2838   11.6728 C.2     1  UNL1        0.2490
     27 O          61.5846   89.6847   11.6736 O.2     1  UNL1       -0.2727
     28 C          61.8661   85.7773   11.0383 C.3     1  UNL1        0.0952
     29 C          62.7338   85.3071    9.9088 C.3     1  UNL1        0.0388
     30 C          62.6318   85.9605    8.5625 C.3     1  UNL1        0.0739
     31 C          60.4318   85.2951    7.3511 C.3     1  UNL1        0.0897
     32 N          61.9288   85.2578    7.4390 N.3     1  UNL1       -0.2703
     33 C          62.7227   84.5178    6.4036 C.3     1  UNL1        0.0897
     34 C          60.0023   87.4734   10.4061 C.3     1  UNL1        0.1202
     35 C          59.9330   88.3162    9.1672 C.ar    1  UNL1       -0.0023
     36 C          59.0473   87.9046    8.0287 C.ar    1  UNL1       -0.0026
     37 C          58.9780   88.7474    6.7898 C.ar    1  UNL1       -0.0003
     38 C          59.7943   90.0017    6.6894 C.ar    1  UNL1       -0.0000
     39 C          60.6800   90.4133    7.8279 C.ar    1  UNL1       -0.0003
     40 C          60.7493   89.5706    9.0667 C.ar    1  UNL1       -0.0026
     41 C          59.7250   90.8445    5.4504 C.ar    1  UNL1        0.0001
     42 C          58.3996   91.3429    4.9556 C.ar    1  UNL1        0.0009
     43 C          58.3303   92.1857    3.7166 C.ar    1  UNL1        0.0114
     44 C          59.5863   92.5301    2.9726 C.ar    1  UNL1        0.0577
     45 CL         59.5171   93.3728    1.7336 Cl      1  UNL1       -0.0822
     46 C          60.9118   92.0316    3.4674 C.ar    1  UNL1        0.0114
     47 C          60.9811   91.1888    4.7063 C.ar    1  UNL1        0.0009
@<TRIPOS>BOND
     1    31    32    1
     2    32    33    1
     3    32    30    1
     4    30    29    1
     5    29    28    1
     6    28    25    1
     7    25    34    1
     8    34    35    1
     9    35    36   ar
    10    36    37   ar
    11    37    38   ar
    12    38    41    1
    13    41    42   ar
    14    42    43   ar
    15    43    44   ar
    16    44    45    1
    17    44    46   ar
    18    46    47   ar
    19    38    39   ar
    20    39    40   ar
    21    25    26   am
    22    26    27    2
    23    26     1    1
    24     1     2    1
    25     2     3   ar
    26     3     4   ar
    27     4     9    1
    28     9    10    1
    29    10    11   ar
    30    11    12   ar
    31    12    13   ar
    32    13    14    1
    33    13    15   ar
    34     4     5   ar
    35     5     6    2
    36     5     7   ar
    37     7     8   ar
    38     8    16    1
    39    16    17    1
    40    17    18    1
    41    18    19   ar
    42    19    20   ar
    43    20    21   ar
    44    21    22    1
    45    21    23   ar
    46    23    24   ar
    47    40    35   ar
    48     8     2   ar
    49    24    18   ar
    50    47    41   ar
    51    15    10   ar
@<TRIPOS>MOLECULE
*****
 47 51 0 0 0
SMALL
GASTEIGER

@<TRIPOS>ATOM
      1 C          63.5034   87.9491   12.4593 C.3     1  UNL1        0.1934
      2 N          63.5921   87.3401   13.8273 N.ar    1  UNL1       -0.2979
      3 C          63.8660   85.8731   13.9788 C.ar    1  UNL1        0.0786
      4 C          63.9548   85.2642   15.3468 C.ar    1  UNL1        0.0574
      5 C          63.7696   86.1222   16.5632 C.ar    1  UNL1        0.2786
      6 O          63.8583   85.5133   17.9311 O.2     1  UNL1       -0.2654
      7 N          63.4957   87.5892   16.4116 N.ar    1  UNL1       -0.1847
      8 C          63.4070   88.1981   15.0436 C.ar    1  UNL1        0.1750
      9 C          64.2286   83.7972   15.4984 C.3     1  UNL1        0.0622
     10 C          63.3041   82.7933   14.8758 C.ar    1  UNL1        0.0220
     11 C          61.8088   82.8928   14.8114 C.ar    1  UNL1        0.1177
     12 N          61.2932   81.6747   14.1041 N.ar    1  UNL1       -0.1679
     13 N          62.4699   80.8223   13.7313 N.ar    1  UNL1       -0.2477
     14 C          62.4137   79.5092   13.0084 C.3     1  UNL1        0.1537
     15 C          63.7127   81.5137   14.2082 C.ar    1  UNL1        0.0927
     16 S          63.1331   89.6651   14.8920 S.3     1  UNL1       -0.0724
     17 C          64.2156   90.6636   15.1771 C.3     1  UNL1        0.0913
     18 C          64.9904   91.2730   14.0465 C.ar    1  UNL1       -0.0108
     19 C          64.3135   91.5502   12.7370 C.ar    1  UNL1       -0.0011
     20 C          65.0884   92.1597   11.6064 C.ar    1  UNL1        0.0293
     21 C          66.5401   92.4920   11.7854 C.ar    1  UNL1        0.1401
     22 F          67.3149   93.1014   10.6548 F       1  UNL1       -0.2042
     23 C          67.2170   92.2148   13.0950 C.ar    1  UNL1        0.0293
     24 C          66.4422   91.6053   14.2255 C.ar    1  UNL1       -0.0011
     25 N          61.5834   86.9848   10.9986 N.am    1  UNL1       -0.2738
     26 C          62.1678   88.1126   11.7963 C.2     1  UNL1        0.2490
     27 O          61.4166   89.4039   11.9311 O.2     1  UNL1       -0.2727
     28 C          62.3346   85.6934   10.8638 C.3     1  UNL1        0.0952
     29 C          62.6864   85.1688    9.5033 C.3     1  UNL1        0.0388
     30 C          63.7535   84.1252    9.3547 C.3     1  UNL1        0.0739
     31 C          63.2096   81.7864   10.3469 C.3     1  UNL1        0.0897
     32 N          63.9454   83.0912   10.4244 N.3     1  UNL1       -0.2703
     33 C          64.8732   83.3621   11.5715 C.3     1  UNL1        0.0897
     34 C          60.2478   87.1482   10.3356 C.3     1  UNL1        0.1202
     35 C          60.1115   88.0321    9.1313 C.ar    1  UNL1       -0.0023
     36 C          60.5867   89.4537    9.1866 C.ar    1  UNL1       -0.0026
     37 C          60.4503   90.3374    7.9824 C.ar    1  UNL1       -0.0003
     38 C          59.8387   89.7996    6.7228 C.ar    1  UNL1       -0.0000
     39 C          59.3634   88.3780    6.6674 C.ar    1  UNL1       -0.0003
     40 C          59.4998   87.4942    7.8717 C.ar    1  UNL1       -0.0026
     41 C          59.7023   90.6835    5.5185 C.ar    1  UNL1        0.0001
     42 C          60.9181   91.0676    4.7285 C.ar    1  UNL1        0.0009
     43 C          60.7817   91.9514    3.5242 C.ar    1  UNL1        0.0114
     44 C          59.4295   92.4511    3.1099 C.ar    1  UNL1        0.0577
     45 CL         59.2930   93.3349    1.9057 Cl      1  UNL1       -0.0822
     46 C          58.2135   92.0669    3.8999 C.ar    1  UNL1        0.0114
     47 C          58.3500   91.1831    5.1042 C.ar    1  UNL1        0.0009
@<TRIPOS>BOND
     1    31    32    1
     2    32    33    1
     3    32    30    1
     4    30    29    1
     5    29    28    1
     6    28    25    1
     7    25    34    1
     8    34    35    1
     9    35    36   ar
    10    36    37   ar
    11    37    38   ar
    12    38    41    1
    13    41    42   ar
    14    42    43   ar
    15    43    44   ar
    16    44    45    1
    17    44    46   ar
    18    46    47   ar
    19    38    39   ar
    20    39    40   ar
    21    25    26   am
    22    26    27    2
    23    26     1    1
    24     1     2    1
    25     2     3   ar
    26     3     4   ar
    27     4     9    1
    28     9    10    1
    29    10    11   ar
    30    11    12   ar
    31    12    13   ar
    32    13    14    1
    33    13    15   ar
    34     4     5   ar
    35     5     6    2
    36     5     7   ar
    37     7     8   ar
    38     8    16    1
    39    16    17    1
    40    17    18    1
    41    18    19   ar
    42    19    20   ar
    43    20    21   ar
    44    21    22    1
    45    21    23   ar
    46    23    24   ar
    47    40    35   ar
    48     8     2   ar
    49    24    18   ar
    50    47    41   ar
    51    15    10   ar
