@<TRIPOS>MOLECULE
*****
 35 38 0 0 0
SMALL
GASTEIGER

@<TRIPOS>ATOM
      1 C          64.1333   88.2799   13.7292 C.ar    1  UNL1        0.2266
      2 C          64.4406   87.0263   14.4933 C.ar    1  UNL1        0.0617
      3 C          63.9214   85.7055   14.0075 C.ar    1  UNL1        0.0805
      4 C          63.0949   85.6384   12.7575 C.ar    1  UNL1        0.0590
      5 C          62.4510   84.4889   12.0405 C.ar    1  UNL1        0.1038
      6 N          61.7457   85.0321   10.8333 N.ar    1  UNL1       -0.1679
      7 N          61.9538   86.5173   10.8041 N.ar    1  UNL1       -0.2319
      8 C          61.4214   87.4620    9.7677 C.3     1  UNL1        0.1554
      9 C          62.7876   86.8920   11.9934 C.ar    1  UNL1        0.1639
     10 N          63.3068   88.2128   12.4792 N.ar    1  UNL1       -0.1928
     11 C          62.5032   83.0490   12.4576 C.ar    1  UNL1        0.0194
     12 C          61.9454   82.6323   13.7862 C.ar    1  UNL1        0.0016
     13 C          61.9976   81.1924   14.2032 C.ar    1  UNL1        0.0000
     14 C          62.6077   80.1692   13.2916 C.ar    1  UNL1        0.0000
     15 C          63.1655   80.5859   11.9630 C.ar    1  UNL1        0.0000
     16 C          63.1133   82.0258   11.5460 C.ar    1  UNL1        0.0016
     17 C          64.2287   84.4518   14.7716 C.3     1  UNL1        0.4189
     18 F          64.5360   83.1982   15.5357 F       1  UNL1       -0.1659
     19 F          63.1885   84.8168   15.7887 F       1  UNL1       -0.1659
     20 F          65.2690   84.0868   13.7545 F       1  UNL1       -0.1659
     21 O          64.6525   89.6007   14.2150 O.3     1  UNL1       -0.4501
     22 C          64.2952   90.8614   13.4849 C.3     1  UNL1        0.2910
     23 N          65.0776   93.0042   12.2415 N.am    1  UNL1       -0.3022
     24 C          65.3475   91.8959   13.2155 C.2     1  UNL1        0.2671
     25 O          66.6697   91.8220   13.9200 O.2     1  UNL1       -0.2711
     26 H          64.2099   93.0527   11.7791 H       1  UNL1        0.1495
     27 C          66.1299   94.0386   11.9720 C.3     1  UNL1        0.0823
     28 C          66.6930   94.8479   13.1025 C.3     1  UNL1        0.0220
     29 C          65.4088   96.5950   10.0760 C.3     1  UNL1        0.0496
     30 C          66.2877   95.4389    9.7005 C.2     1  UNL1        0.0652
     31 N          66.9894   95.2548    8.3876 N.2     1  UNL1       -0.1569
     32 N          67.7546   93.9660    8.4477 N.2     1  UNL1       -0.1569
     33 C          67.5257   93.3536    9.7977 C.2     1  UNL1        0.0652
     34 C          68.1023   92.0583   10.2875 C.3     1  UNL1        0.0496
     35 C          66.6191   94.2639   10.5720 C.3     1  UNL1        0.0935
@<TRIPOS>BOND
     1    29    30    1
     2    30    31    2
     3    31    32    1
     4    32    33    2
     5    33    34    1
     6    33    35    1
     7    35    27    1
     8    27    28    1
     9    27    23    1
    10    23    24   am
    11    24    25    2
    12    24    22    1
    13    22    21    1
    14    21     1    1
    15     1     2   ar
    16     2     3   ar
    17     3    17    1
    18    17    18    1
    19    17    19    1
    20    17    20    1
    21     3     4   ar
    22     4     5   ar
    23     5    11    1
    24    11    12   ar
    25    12    13   ar
    26    13    14   ar
    27    14    15   ar
    28    15    16   ar
    29     5     6   ar
    30     6     7   ar
    31     7     8    1
    32     7     9   ar
    33     9    10   ar
    34    35    30    1
    35    10     1   ar
    36     9     4   ar
    37    16    11   ar
    38    23    26    1
@<TRIPOS>MOLECULE
*****
 35 38 0 0 0
SMALL
GASTEIGER

@<TRIPOS>ATOM
      1 C          63.7883   90.4334   13.5361 C.ar    1  UNL1        0.2266
      2 C          63.0517   90.6595   12.2492 C.ar    1  UNL1        0.0617
      3 C          62.5590   89.4888   11.4513 C.ar    1  UNL1        0.0805
      4 C          62.8029   88.0919   11.9405 C.ar    1  UNL1        0.0590
      5 C          62.4386   86.7518   11.3732 C.ar    1  UNL1        0.1038
      6 N          62.9500   85.6976   12.3096 N.ar    1  UNL1       -0.1679
      7 N          63.6304   86.3860   13.4556 N.ar    1  UNL1       -0.2319
      8 C          64.2865   85.7128   14.6245 C.3     1  UNL1        0.1554
      9 C          63.5394   87.8657   13.2274 C.ar    1  UNL1        0.1639
     10 N          64.0321   89.0365   14.0252 N.ar    1  UNL1       -0.1928
     11 C          61.6936   86.5088   10.0941 C.ar    1  UNL1        0.0194
     12 C          60.2716   86.9657    9.9560 C.ar    1  UNL1        0.0016
     13 C          59.5268   86.7226    8.6769 C.ar    1  UNL1        0.0000
     14 C          60.2039   86.0228    7.5360 C.ar    1  UNL1        0.0000
     15 C          61.6259   85.5660    7.6741 C.ar    1  UNL1        0.0000
     16 C          62.3708   85.8090    8.9532 C.ar    1  UNL1        0.0016
     17 C          61.8224   89.7149   10.1643 C.3     1  UNL1        0.4189
     18 F          61.0859   89.9409    8.8773 F       1  UNL1       -0.1659
     19 F          63.0385   89.2929    9.3942 F       1  UNL1       -0.1659
     20 F          60.6063   90.1369   10.9344 F       1  UNL1       -0.1659
     21 O          64.2810   91.6041   14.3340 O.3     1  UNL1       -0.4501
     22 C          65.7520   91.8827   14.4269 C.3     1  UNL1        0.2910
     23 N          65.6739   93.4846   12.3829 N.am    1  UNL1       -0.3022
     24 C          66.3559   92.9992   13.6276 C.2     1  UNL1        0.2671
     25 O          67.6417   93.6302   14.0731 O.2     1  UNL1       -0.2711
     26 H          64.8300   93.0704   12.0905 H       1  UNL1        0.1495
     27 C          66.2778   94.6010   11.5837 C.3     1  UNL1        0.0823
     28 C          66.2784   95.9985   12.1286 C.3     1  UNL1        0.0220
     29 C          66.0569   96.5087    8.9451 C.3     1  UNL1        0.0496
     30 C          66.7796   95.1968    9.0266 C.2     1  UNL1        0.0652
     31 N          67.5277   94.5315    7.9096 N.2     1  UNL1       -0.1569
     32 N          68.0917   93.2434    8.4320 N.2     1  UNL1       -0.1569
     33 C          67.6921   93.1127    9.8719 C.2     1  UNL1        0.0652
     34 C          68.0419   91.9745   10.7842 C.3     1  UNL1        0.0496
     35 C          66.8812   94.3200   10.2394 C.3     1  UNL1        0.0935
@<TRIPOS>BOND
     1    29    30    1
     2    30    31    2
     3    31    32    1
     4    32    33    2
     5    33    34    1
     6    33    35    1
     7    35    27    1
     8    27    28    1
     9    27    23    1
    10    23    24   am
    11    24    25    2
    12    24    22    1
    13    22    21    1
    14    21     1    1
    15     1     2   ar
    16     2     3   ar
    17     3    17    1
    18    17    18    1
    19    17    19    1
    20    17    20    1
    21     3     4   ar
    22     4     5   ar
    23     5    11    1
    24    11    12   ar
    25    12    13   ar
    26    13    14   ar
    27    14    15   ar
    28    15    16   ar
    29     5     6   ar
    30     6     7   ar
    31     7     8    1
    32     7     9   ar
    33     9    10   ar
    34    35    30    1
    35    10     1   ar
    36     9     4   ar
    37    16    11   ar
    38    23    26    1
@<TRIPOS>MOLECULE
*****
 35 38 0 0 0
SMALL
GASTEIGER

@<TRIPOS>ATOM
      1 C          64.0361   88.4452   13.6075 C.ar    1  UNL1        0.2266
      2 C          64.3457   87.2206   14.4165 C.ar    1  UNL1        0.0617
      3 C          63.8680   85.8760   13.9544 C.ar    1  UNL1        0.0805
      4 C          63.0806   85.7559   12.6833 C.ar    1  UNL1        0.0590
      5 C          62.4816   84.5731   11.9817 C.ar    1  UNL1        0.1038
      6 N          61.8018   85.0667   10.7391 N.ar    1  UNL1       -0.1679
      7 N          61.9806   86.5546   10.6728 N.ar    1  UNL1       -0.2319
      8 C          61.4604   87.4579    9.5942 C.3     1  UNL1        0.1554
      9 C          62.7710   86.9805   11.8744 C.ar    1  UNL1        0.1639
     10 N          63.2487   88.3251   12.3365 N.ar    1  UNL1       -0.1928
     11 C          62.5504   83.1471   12.4419 C.ar    1  UNL1        0.0194
     12 C          61.9492   82.7541   13.7587 C.ar    1  UNL1        0.0016
     13 C          62.0180   81.3281   14.2188 C.ar    1  UNL1        0.0000
     14 C          62.6881   80.2951   13.3621 C.ar    1  UNL1        0.0000
     15 C          63.2893   80.6881   12.0453 C.ar    1  UNL1        0.0000
     16 C          63.2205   82.1141   11.5852 C.ar    1  UNL1        0.0016
     17 C          64.1777   84.6513   14.7634 C.3     1  UNL1        0.4189
     18 F          64.4873   83.4267   15.5723 F       1  UNL1       -0.1659
     19 F          65.2457   84.2723   13.7807 F       1  UNL1       -0.1659
     20 F          63.1096   85.0303   15.7460 F       1  UNL1       -0.1659
     21 O          64.5138   89.7900   14.0696 O.3     1  UNL1       -0.4501
     22 C          64.2039   91.0146   13.2608 C.3     1  UNL1        0.2910
     23 N          65.0619   93.1135   11.9924 N.am    1  UNL1       -0.3022
     24 C          65.2652   92.0492   13.0296 C.2     1  UNL1        0.2671
     25 O          66.5299   92.0194   13.8357 O.2     1  UNL1       -0.2711
     26 H          64.2318   93.1330   11.4633 H       1  UNL1        0.1495
     27 C          66.1231   94.1479   11.7612 C.3     1  UNL1        0.0823
     28 C          66.6216   94.9798   12.9056 C.3     1  UNL1        0.0220
     29 C          68.0927   92.0878   10.1717 C.3     1  UNL1        0.0496
     30 C          67.5913   93.4037    9.6551 C.2     1  UNL1        0.0652
     31 N          67.9072   94.0037    8.3171 N.2     1  UNL1       -0.1569
     32 N          67.1971   95.3216    8.2207 N.2     1  UNL1       -0.1569
     33 C          66.4424   95.5359    9.4992 C.2     1  UNL1        0.0652
     34 C          65.5931   96.7266    9.8327 C.3     1  UNL1        0.0496
     35 C          66.6860   94.3507   10.3857 C.3     1  UNL1        0.0935
@<TRIPOS>BOND
     1    29    30    1
     2    30    31    2
     3    31    32    1
     4    32    33    2
     5    33    34    1
     6    33    35    1
     7    35    27    1
     8    27    28    1
     9    27    23    1
    10    23    24   am
    11    24    25    2
    12    24    22    1
    13    22    21    1
    14    21     1    1
    15     1     2   ar
    16     2     3   ar
    17     3    17    1
    18    17    18    1
    19    17    19    1
    20    17    20    1
    21     3     4   ar
    22     4     5   ar
    23     5    11    1
    24    11    12   ar
    25    12    13   ar
    26    13    14   ar
    27    14    15   ar
    28    15    16   ar
    29     5     6   ar
    30     6     7   ar
    31     7     8    1
    32     7     9   ar
    33     9    10   ar
    34    35    30    1
    35    10     1   ar
    36     9     4   ar
    37    16    11   ar
    38    23    26    1
@<TRIPOS>MOLECULE
*****
 35 38 0 0 0
SMALL
GASTEIGER

@<TRIPOS>ATOM
      1 C          63.6623   90.5455   14.8399 C.ar    1  UNL1        0.2266
      2 C          63.4408   90.8003   13.3784 C.ar    1  UNL1        0.0617
      3 C          64.4893   91.5092   12.5734 C.ar    1  UNL1        0.0805
      4 C          65.7593   91.9632   13.2298 C.ar    1  UNL1        0.0590
      5 C          66.9640   92.6805   12.6965 C.ar    1  UNL1        0.1038
      6 N          67.9300   92.8690   13.8284 N.ar    1  UNL1       -0.1679
      7 N          67.3224   92.2682   15.0612 N.ar    1  UNL1       -0.2319
      8 C          67.9467   92.2333   16.4247 C.3     1  UNL1        0.1554
      9 C          65.9809   91.7084   14.6913 C.ar    1  UNL1        0.1639
     10 N          64.9324   90.9995   15.4963 N.ar    1  UNL1       -0.1928
     11 C          67.1669   93.1304   11.2800 C.ar    1  UNL1        0.0194
     12 C          66.6567   94.4699   10.8380 C.ar    1  UNL1        0.0016
     13 C          66.8596   94.9197    9.4216 C.ar    1  UNL1        0.0000
     14 C          67.5728   94.0299    8.4470 C.ar    1  UNL1        0.0000
     15 C          68.0830   92.6904    8.8889 C.ar    1  UNL1        0.0000
     16 C          67.8800   92.2406   10.3054 C.ar    1  UNL1        0.0016
     17 C          64.2678   91.7640   11.1118 C.3     1  UNL1        0.4189
     18 F          64.0463   92.0189    9.6504 F       1  UNL1       -0.1659
     19 F          64.4712   93.2330   11.3372 F       1  UNL1       -0.1659
     20 F          64.0643   90.2951   10.8865 F       1  UNL1       -0.1659
     21 O          62.6138   89.8366   15.6450 O.3     1  UNL1       -0.4501
     22 C          63.0136   88.7846   16.6367 C.3     1  UNL1        0.2910
     23 N          63.9450   87.2281   14.7765 N.am    1  UNL1       -0.3022
     24 C          63.4022   87.4156   16.1622 C.2     1  UNL1        0.2671
     25 O          63.2478   86.2342   17.0735 O.2     1  UNL1       -0.2711
     26 H          64.0463   88.0035   14.1784 H       1  UNL1        0.1495
     27 C          64.3335   85.8592   14.3021 C.3     1  UNL1        0.0823
     28 C          65.5309   85.1734   14.8904 C.3     1  UNL1        0.0220
     29 C          62.8082   87.3216   11.8152 C.3     1  UNL1        0.0496
     30 C          62.8237   85.8483   12.0964 C.2     1  UNL1        0.0652
     31 N          62.1407   84.7885   11.2838 N.2     1  UNL1       -0.1569
     32 N          62.4197   83.4612   11.9247 N.2     1  UNL1       -0.1569
     33 C          63.2751   83.7008   13.1333 C.2     1  UNL1        0.0652
     34 C          63.7904   82.6497   14.0713 C.3     1  UNL1        0.0496
     35 C          63.5247   85.1761   13.2394 C.3     1  UNL1        0.0935
@<TRIPOS>BOND
     1    29    30    1
     2    30    31    2
     3    31    32    1
     4    32    33    2
     5    33    34    1
     6    33    35    1
     7    35    27    1
     8    27    28    1
     9    27    23    1
    10    23    24   am
    11    24    25    2
    12    24    22    1
    13    22    21    1
    14    21     1    1
    15     1     2   ar
    16     2     3   ar
    17     3    17    1
    18    17    18    1
    19    17    19    1
    20    17    20    1
    21     3     4   ar
    22     4     5   ar
    23     5    11    1
    24    11    12   ar
    25    12    13   ar
    26    13    14   ar
    27    14    15   ar
    28    15    16   ar
    29     5     6   ar
    30     6     7   ar
    31     7     8    1
    32     7     9   ar
    33     9    10   ar
    34    35    30    1
    35    10     1   ar
    36     9     4   ar
    37    16    11   ar
    38    23    26    1
@<TRIPOS>MOLECULE
*****
 35 38 0 0 0
SMALL
GASTEIGER

@<TRIPOS>ATOM
      1 C          64.1732   87.7660   14.3422 C.ar    1  UNL1        0.2266
      2 C          64.3437   86.4175   14.9767 C.ar    1  UNL1        0.0617
      3 C          63.8466   85.1895   14.2733 C.ar    1  UNL1        0.0805
      4 C          63.1790   85.3099   12.9354 C.ar    1  UNL1        0.0590
      5 C          62.5921   84.2850   12.0107 C.ar    1  UNL1        0.1038
      6 N          62.0589   85.0000   10.8047 N.ar    1  UNL1       -0.1679
      7 N          62.3162   86.4669   10.9842 N.ar    1  UNL1       -0.2319
      8 C          61.9463   87.5518   10.0166 C.3     1  UNL1        0.1554
      9 C          63.0085   86.6584   12.3010 C.ar    1  UNL1        0.1639
     10 N          63.5056   87.8864   13.0044 N.ar    1  UNL1       -0.1928
     11 C          62.5465   82.8049   12.2499 C.ar    1  UNL1        0.0194
     12 C          61.8421   82.2617   13.4577 C.ar    1  UNL1        0.0016
     13 C          61.7965   80.7816   13.6968 C.ar    1  UNL1        0.0000
     14 C          62.4553   79.8447   12.7282 C.ar    1  UNL1        0.0000
     15 C          63.1597   80.3879   11.5205 C.ar    1  UNL1        0.0000
     16 C          63.2053   81.8680   11.2813 C.ar    1  UNL1        0.0016
     17 C          64.0171   83.8409   14.9077 C.3     1  UNL1        0.4189
     18 F          64.1876   82.4925   15.5421 F       1  UNL1       -0.1659
     19 F          62.8126   84.0922   15.7655 F       1  UNL1       -0.1659
     20 F          65.2217   83.5896   14.0499 F       1  UNL1       -0.1659
     21 O          64.6703   88.9941   15.0456 O.3     1  UNL1       -0.4501
     22 C          63.9452   90.2970   14.8827 C.3     1  UNL1        0.2910
     23 N          65.8999   91.8977   14.2770 N.am    1  UNL1       -0.3022
     24 C          64.5210   91.3716   14.0088 C.2     1  UNL1        0.2671
     25 O          63.7179   91.9202   12.8669 O.2     1  UNL1       -0.2711
     26 H          66.4270   91.5377   15.0265 H       1  UNL1        0.1495
     27 C          66.4756   92.9723   13.4031 C.3     1  UNL1        0.0823
     28 C          66.3978   94.4081   13.8302 C.3     1  UNL1        0.0220
     29 C          69.3708   91.5078   13.0524 C.3     1  UNL1        0.0496
     30 C          68.4599   91.9380   11.9410 C.2     1  UNL1        0.0652
     31 N          68.7199   91.7706   10.4732 N.2     1  UNL1       -0.1569
     32 N          67.5499   92.3403    9.7272 N.2     1  UNL1       -0.1569
     33 C          66.5668   92.8598   10.7340 C.2     1  UNL1        0.0652
     34 C          65.2520   93.5132   10.4266 C.3     1  UNL1        0.0496
     35 C          67.1292   92.6112   12.1022 C.3     1  UNL1        0.0935
@<TRIPOS>BOND
     1    29    30    1
     2    30    31    2
     3    31    32    1
     4    32    33    2
     5    33    34    1
     6    33    35    1
     7    35    27    1
     8    27    28    1
     9    27    23    1
    10    23    24   am
    11    24    25    2
    12    24    22    1
    13    22    21    1
    14    21     1    1
    15     1     2   ar
    16     2     3   ar
    17     3    17    1
    18    17    18    1
    19    17    19    1
    20    17    20    1
    21     3     4   ar
    22     4     5   ar
    23     5    11    1
    24    11    12   ar
    25    12    13   ar
    26    13    14   ar
    27    14    15   ar
    28    15    16   ar
    29     5     6   ar
    30     6     7   ar
    31     7     8    1
    32     7     9   ar
    33     9    10   ar
    34    35    30    1
    35    10     1   ar
    36     9     4   ar
    37    16    11   ar
    38    23    26    1
@<TRIPOS>MOLECULE
*****
 35 38 0 0 0
SMALL
GASTEIGER

@<TRIPOS>ATOM
      1 C          62.5929   90.0651   11.6245 C.ar    1  UNL1        0.2266
      2 C          63.7632   90.9404   11.2869 C.ar    1  UNL1        0.0617
      3 C          64.6869   91.4091   12.3718 C.ar    1  UNL1        0.0805
      4 C          64.4402   91.0024   13.7944 C.ar    1  UNL1        0.0590
      5 C          65.1737   91.3071   15.0670 C.ar    1  UNL1        0.1038
      6 N          64.4566   90.6200   16.1911 N.ar    1  UNL1       -0.1679
      7 N          63.2800   89.8907   15.6133 N.ar    1  UNL1       -0.2319
      8 C          62.2877   89.0693   16.3818 C.3     1  UNL1        0.1554
      9 C          63.2699   90.1271   14.1321 C.ar    1  UNL1        0.1639
     10 N          62.3462   89.6584   13.0472 N.ar    1  UNL1       -0.1928
     11 C          66.4076   92.1506   15.1931 C.ar    1  UNL1        0.0194
     12 C          66.3739   93.5942   14.7870 C.ar    1  UNL1        0.0016
     13 C          67.6078   94.4377   14.9132 C.ar    1  UNL1        0.0000
     14 C          68.8753   93.8377   15.4456 C.ar    1  UNL1        0.0000
     15 C          68.9090   92.3941   15.8517 C.ar    1  UNL1        0.0000
     16 C          67.6751   91.5506   15.7255 C.ar    1  UNL1        0.0016
     17 C          65.8573   92.2844   12.0341 C.3     1  UNL1        0.4189
     18 F          67.0276   93.1598   11.6965 F       1  UNL1       -0.1659
     19 F          64.9192   93.3666   11.5881 F       1  UNL1       -0.1659
     20 F          66.7954   91.2023   12.4801 F       1  UNL1       -0.1659
     21 O          61.6691   89.5963   10.5396 O.3     1  UNL1       -0.4501
     22 C          60.7701   88.4193   10.7766 C.3     1  UNL1        0.2910
     23 N          62.3338   86.6216   11.8127 N.am    1  UNL1       -0.3022
     24 C          61.3358   87.0300   10.7700 C.2     1  UNL1        0.2671
     25 O          60.9036   86.0492    9.7207 O.2     1  UNL1       -0.2711
     26 H          62.6175   87.2654   12.5015 H       1  UNL1        0.1495
     27 C          62.8995   85.2324   11.8061 C.3     1  UNL1        0.0823
     28 C          63.1631   84.5362   10.5039 C.3     1  UNL1        0.0220
     29 C          64.3166   86.5810   14.4181 C.3     1  UNL1        0.0496
     30 C          63.8529   85.1593   14.3023 C.2     1  UNL1        0.0652
     31 N          63.9591   84.1077   15.3667 N.2     1  UNL1       -0.1569
     32 N          63.3733   82.8379   14.8240 N.2     1  UNL1       -0.1569
     33 C          62.9051   83.1047   13.4241 C.2     1  UNL1        0.0652
     34 C          62.2547   82.1112   12.5075 C.3     1  UNL1        0.0496
     35 C          63.2015   84.5394   13.1017 C.3     1  UNL1        0.0935
@<TRIPOS>BOND
     1    29    30    1
     2    30    31    2
     3    31    32    1
     4    32    33    2
     5    33    34    1
     6    33    35    1
     7    35    27    1
     8    27    28    1
     9    27    23    1
    10    23    24   am
    11    24    25    2
    12    24    22    1
    13    22    21    1
    14    21     1    1
    15     1     2   ar
    16     2     3   ar
    17     3    17    1
    18    17    18    1
    19    17    19    1
    20    17    20    1
    21     3     4   ar
    22     4     5   ar
    23     5    11    1
    24    11    12   ar
    25    12    13   ar
    26    13    14   ar
    27    14    15   ar
    28    15    16   ar
    29     5     6   ar
    30     6     7   ar
    31     7     8    1
    32     7     9   ar
    33     9    10   ar
    34    35    30    1
    35    10     1   ar
    36     9     4   ar
    37    16    11   ar
    38    23    26    1
@<TRIPOS>MOLECULE
*****
 35 38 0 0 0
SMALL
GASTEIGER

@<TRIPOS>ATOM
      1 C          64.4087   89.6939   14.3261 C.ar    1  UNL1        0.2266
      2 C          63.9868   90.1659   12.9663 C.ar    1  UNL1        0.0617
      3 C          64.6532   91.3580   12.3461 C.ar    1  UNL1        0.0805
      4 C          65.7415   92.0781   13.0857 C.ar    1  UNL1        0.0590
      5 C          66.5747   93.2740   12.7309 C.ar    1  UNL1        0.1038
      6 N          67.5115   93.5411   13.8715 N.ar    1  UNL1       -0.1679
      7 N          67.2573   92.5103   14.9312 N.ar    1  UNL1       -0.2319
      8 C          67.9716   92.4026   16.2458 C.3     1  UNL1        0.1554
      9 C          66.1634   91.6061   14.4455 C.ar    1  UNL1        0.1639
     10 N          65.4970   90.4140   15.0657 N.ar    1  UNL1       -0.1928
     11 C          66.4865   94.0640   11.4589 C.ar    1  UNL1        0.0194
     12 C          65.6109   95.2800   11.3904 C.ar    1  UNL1        0.0016
     13 C          65.5228   96.0700   10.1183 C.ar    1  UNL1        0.0000
     14 C          66.3102   95.6440    8.9148 C.ar    1  UNL1        0.0000
     15 C          67.1858   94.4280    8.9833 C.ar    1  UNL1        0.0000
     16 C          67.2739   93.6381   10.2553 C.ar    1  UNL1        0.0016
     17 C          64.2314   91.8300   10.9861 C.3     1  UNL1        0.4189
     18 F          63.8096   92.3020    9.6263 F       1  UNL1       -0.1659
     19 F          65.6272   91.6178   10.4795 F       1  UNL1       -0.1659
     20 F          62.8356   92.0422   11.4927 F       1  UNL1       -0.1659
     21 O          63.7423   88.5018   14.9465 O.3     1  UNL1       -0.4501
     22 C          64.2769   87.1244   14.6874 C.3     1  UNL1        0.2910
     23 N          63.1251   86.7446   12.3898 N.am    1  UNL1       -0.3022
     24 C          63.5760   86.2176   13.7197 C.2     1  UNL1        0.2671
     25 O          63.3260   84.7836   14.0821 O.2     1  UNL1       -0.2711
     26 H          63.2891   87.6858   12.1520 H       1  UNL1        0.1495
     27 C          62.4242   85.8378   11.4222 C.3     1  UNL1        0.0823
     28 C          62.4766   84.3511   11.6148 C.3     1  UNL1        0.0220
     29 C          60.0131   88.0295   11.6028 C.3     1  UNL1        0.0496
     30 C          60.5626   87.4249   10.3448 C.2     1  UNL1        0.0652
     31 N          60.1004   87.7217    8.9490 N.2     1  UNL1       -0.1569
     32 N          60.9229   86.8976    8.0032 N.2     1  UNL1       -0.1569
     33 C          61.8935   86.0916    8.8146 C.2     1  UNL1        0.0652
     34 C          62.9087   85.1287    8.2738 C.3     1  UNL1        0.0496
     35 C          61.6709   86.4175   10.2618 C.3     1  UNL1        0.0935
@<TRIPOS>BOND
     1    29    30    1
     2    30    31    2
     3    31    32    1
     4    32    33    2
     5    33    34    1
     6    33    35    1
     7    35    27    1
     8    27    28    1
     9    27    23    1
    10    23    24   am
    11    24    25    2
    12    24    22    1
    13    22    21    1
    14    21     1    1
    15     1     2   ar
    16     2     3   ar
    17     3    17    1
    18    17    18    1
    19    17    19    1
    20    17    20    1
    21     3     4   ar
    22     4     5   ar
    23     5    11    1
    24    11    12   ar
    25    12    13   ar
    26    13    14   ar
    27    14    15   ar
    28    15    16   ar
    29     5     6   ar
    30     6     7   ar
    31     7     8    1
    32     7     9   ar
    33     9    10   ar
    34    35    30    1
    35    10     1   ar
    36     9     4   ar
    37    16    11   ar
    38    23    26    1
@<TRIPOS>MOLECULE
*****
 35 38 0 0 0
SMALL
GASTEIGER

@<TRIPOS>ATOM
      1 C          63.4553   87.0007   13.7524 C.ar    1  UNL1        0.2266
      2 C          63.4160   85.7032   13.0010 C.ar    1  UNL1        0.0617
      3 C          62.9571   85.6770   11.5731 C.ar    1  UNL1        0.0805
      4 C          62.5375   86.9484   10.8968 C.ar    1  UNL1        0.0590
      5 C          62.0430   87.2312    9.5091 C.ar    1  UNL1        0.1038
      6 N          61.7767   88.7035    9.4030 N.ar    1  UNL1       -0.1679
      7 N          62.1066   89.3307   10.7250 N.ar    1  UNL1       -0.2319
      8 C          61.9873   90.7869   11.0643 C.3     1  UNL1        0.1554
      9 C          62.5768   88.2460   11.6482 C.ar    1  UNL1        0.1639
     10 N          63.0357   88.2721   13.0761 N.ar    1  UNL1       -0.1928
     11 C          61.8490   86.2193    8.4190 C.ar    1  UNL1        0.0194
     12 C          60.4764   85.9593    7.8726 C.ar    1  UNL1        0.0016
     13 C          60.2824   84.9474    6.7826 C.ar    1  UNL1        0.0000
     14 C          61.4609   84.1954    6.2388 C.ar    1  UNL1        0.0000
     15 C          62.8335   84.4554    6.7851 C.ar    1  UNL1        0.0000
     16 C          63.0275   85.4673    7.8752 C.ar    1  UNL1        0.0016
     17 C          62.9178   84.3794   10.8216 C.3     1  UNL1        0.4189
     18 F          62.8786   83.0819   10.0701 F       1  UNL1       -0.1659
     19 F          64.4167   84.3251   10.8370 F       1  UNL1       -0.1659
     20 F          61.4189   84.4337   10.8062 F       1  UNL1       -0.1659
     21 O          63.9141   87.0269   15.1803 O.3     1  UNL1       -0.4501
     22 C          63.6733   88.2440   16.0233 C.3     1  UNL1        0.2910
     23 N          65.1447   89.7905   14.5422 N.am    1  UNL1       -0.3022
     24 C          63.9895   89.6065   15.4811 C.2     1  UNL1        0.2671
     25 O          63.1505   90.7848   15.8779 O.2     1  UNL1       -0.2711
     26 H          65.6954   89.0171   14.2818 H       1  UNL1        0.1495
     27 C          65.4609   91.1528   14.0001 C.3     1  UNL1        0.0823
     28 C          64.6409   91.7237   12.8812 C.3     1  UNL1        0.0220
     29 C          68.3664   91.6403   12.5966 C.3     1  UNL1        0.0496
     30 C          67.9325   92.1685   13.9318 C.2     1  UNL1        0.0652
     31 N          68.7579   93.0135   14.8562 N.2     1  UNL1       -0.1569
     32 N          67.9325   93.3118   16.0727 N.2     1  UNL1       -0.1569
     33 C          66.5970   92.6510   15.9001 C.2     1  UNL1        0.0652
     34 C          65.4609   92.6900   16.8788 C.3     1  UNL1        0.0496
     35 C          66.5970   91.9445   14.5769 C.3     1  UNL1        0.0935
@<TRIPOS>BOND
     1    29    30    1
     2    30    31    2
     3    31    32    1
     4    32    33    2
     5    33    34    1
     6    33    35    1
     7    35    27    1
     8    27    28    1
     9    27    23    1
    10    23    24   am
    11    24    25    2
    12    24    22    1
    13    22    21    1
    14    21     1    1
    15     1     2   ar
    16     2     3   ar
    17     3    17    1
    18    17    18    1
    19    17    19    1
    20    17    20    1
    21     3     4   ar
    22     4     5   ar
    23     5    11    1
    24    11    12   ar
    25    12    13   ar
    26    13    14   ar
    27    14    15   ar
    28    15    16   ar
    29     5     6   ar
    30     6     7   ar
    31     7     8    1
    32     7     9   ar
    33     9    10   ar
    34    35    30    1
    35    10     1   ar
    36     9     4   ar
    37    16    11   ar
    38    23    26    1
@<TRIPOS>MOLECULE
*****
 35 38 0 0 0
SMALL
GASTEIGER

@<TRIPOS>ATOM
      1 C          62.7366   91.0257   11.2258 C.ar    1  UNL1        0.2266
      2 C          63.9689   91.8484   10.9920 C.ar    1  UNL1        0.0617
      3 C          64.9826   92.0081   12.0859 C.ar    1  UNL1        0.0805
      4 C          64.7641   91.3453   13.4137 C.ar    1  UNL1        0.0590
      5 C          65.5816   91.3233   14.6712 C.ar    1  UNL1        0.1038
      6 N          64.8545   90.4871   15.6821 N.ar    1  UNL1       -0.1679
      7 N          63.5877   89.9923   15.0494 N.ar    1  UNL1       -0.2319
      8 C          62.5576   89.1201   15.7038 C.3     1  UNL1        0.1554
      9 C          63.5318   90.5227   13.6475 C.ar    1  UNL1        0.1639
     10 N          62.5181   90.3629   12.5535 N.ar    1  UNL1       -0.1928
     11 C          66.8955   92.0159   14.8809 C.ar    1  UNL1        0.0194
     12 C          68.0623   91.6951   13.9945 C.ar    1  UNL1        0.0016
     13 C          69.3761   92.3878   14.2043 C.ar    1  UNL1        0.0000
     14 C          69.5232   93.4012   15.3003 C.ar    1  UNL1        0.0000
     15 C          68.3564   93.7221   16.1866 C.ar    1  UNL1        0.0000
     16 C          67.0425   93.0294   15.9769 C.ar    1  UNL1        0.0016
     17 C          66.2150   92.8308   11.8522 C.3     1  UNL1        0.4189
     18 F          67.4473   93.6534   11.6184 F       1  UNL1       -0.1659
     19 F          66.7789   91.7409   10.9897 F       1  UNL1       -0.1659
     20 F          65.6511   93.9208   12.7147 F       1  UNL1       -0.1659
     21 O          61.7228   90.8659   10.1318 O.3     1  UNL1       -0.4501
     22 C          60.4153   90.1872   10.4143 C.3     1  UNL1        0.2910
     23 N          61.1360   88.0921    9.0572 N.am    1  UNL1       -0.3022
     24 C          60.2287   88.7416   10.0597 C.2     1  UNL1        0.2671
     25 O          59.1349   87.9456   10.7077 O.2     1  UNL1       -0.2711
     26 H          61.8539   88.6145    8.6319 H       1  UNL1        0.1495
     27 C          60.9494   86.6466    8.7027 C.3     1  UNL1        0.0823
     28 C          59.7421   86.2152    7.9241 C.3     1  UNL1        0.0220
     29 C          62.7374   84.7769    6.7135 C.3     1  UNL1        0.0496
     30 C          62.7919   84.7731    8.2125 C.2     1  UNL1        0.0652
     31 N          63.6779   83.9093    9.0603 N.2     1  UNL1       -0.1569
     32 N          63.4036   84.2348   10.4987 N.2     1  UNL1       -0.1569
     33 C          62.3481   85.2998   10.5398 C.2     1  UNL1        0.0652
     34 C          61.7718   85.9228   11.7767 C.3     1  UNL1        0.0496
     35 C          61.9701   85.6325    9.1268 C.3     1  UNL1        0.0935
@<TRIPOS>BOND
     1    29    30    1
     2    30    31    2
     3    31    32    1
     4    32    33    2
     5    33    34    1
     6    33    35    1
     7    35    27    1
     8    27    28    1
     9    27    23    1
    10    23    24   am
    11    24    25    2
    12    24    22    1
    13    22    21    1
    14    21     1    1
    15     1     2   ar
    16     2     3   ar
    17     3    17    1
    18    17    18    1
    19    17    19    1
    20    17    20    1
    21     3     4   ar
    22     4     5   ar
    23     5    11    1
    24    11    12   ar
    25    12    13   ar
    26    13    14   ar
    27    14    15   ar
    28    15    16   ar
    29     5     6   ar
    30     6     7   ar
    31     7     8    1
    32     7     9   ar
    33     9    10   ar
    34    35    30    1
    35    10     1   ar
    36     9     4   ar
    37    16    11   ar
    38    23    26    1
