@<TRIPOS>MOLECULE
*****
 39 41 0 0 0
SMALL
GASTEIGER

@<TRIPOS>ATOM
      1 N          63.9856   90.7672   13.5204 N.am    1  UNL1       -0.2770
      2 C          62.8090   90.2455   12.7501 C.2     1  UNL1        0.2254
      3 O          61.7940   89.3748   13.4297 O.2     1  UNL1       -0.2749
      4 C          62.6473   90.5945   11.3003 C.3     1  UNL1        0.0780
      5 C          61.4293   89.7422   11.5005 C.3     1  UNL1        0.0096
      6 C          63.6622   91.4652   10.6207 C.3     1  UNL1        0.0154
      7 C          64.8388   91.9868   11.3910 C.3     1  UNL1        0.0452
      8 C          65.0005   91.6378   12.8409 C.3     1  UNL1        0.1018
      9 C          65.8538   92.8576   10.7115 C.ar    1  UNL1       -0.0197
     10 C          67.0801   92.2449   10.1027 C.ar    1  UNL1       -0.0042
     11 C          68.0951   93.1157    9.4231 C.ar    1  UNL1        0.0005
     12 C          67.8837   94.5990    9.3524 C.ar    1  UNL1        0.0114
     13 C          66.6572   95.2116    9.9613 C.ar    1  UNL1        0.0574
     14 CL         66.4458   96.6949    9.8906 Cl      1  UNL1       -0.0823
     15 C          65.6423   94.3409   10.6408 C.ar    1  UNL1        0.0072
     16 C          66.1772   92.1595   13.6111 C.ar    1  UNL1       -0.0039
     17 C          67.3750   91.2846   13.8344 C.ar    1  UNL1       -0.0018
     18 C          68.5517   91.8063   14.6046 C.ar    1  UNL1        0.0111
     19 C          68.5306   93.2029   15.1517 C.ar    1  UNL1        0.0577
     20 CL         69.7072   93.7245   15.9219 Cl      1  UNL1       -0.0822
     21 C          67.3328   94.0778   14.9284 C.ar    1  UNL1        0.0111
     22 C          66.1561   93.5561   14.1581 C.ar    1  UNL1       -0.0018
     23 C          64.1473   90.4181   14.9703 C.3     1  UNL1        0.0991
     24 C          64.5339   92.1218   16.8933 C.3     1  UNL1        0.0018
     25 C          63.5991   91.3307   16.0270 C.3     1  UNL1        0.0216
     26 C          64.8572   89.1566   15.3633 C.3     1  UNL1        0.1703
     27 S          64.0686   87.9540   15.7899 S.O2    1  UNL1       -0.0115
     28 O          64.6836   87.1565   14.6782 O.2     1  UNL1       -0.1730
     29 O          63.4537   88.7515   16.9016 O.2     1  UNL1       -0.1730
     30 C          63.2801   86.7514   16.2165 C.3     1  UNL1        0.1108
     31 C          63.9064   85.9497   15.1142 C.3     1  UNL1        0.0236
     32 C          62.6537   87.5531   17.3187 C.3     1  UNL1        0.0236
     33 C          62.4915   85.5488   16.6430 C.3     1  UNL1        0.0236
     34 C          62.0625   90.6475    9.9200 C.3     1  UNL1        0.0934
     35 C          61.4252   89.4254    9.3281 C.2     1  UNL1        0.2198
     36 N          60.1421   89.5456    8.5606 N.am    1  UNL1       -0.3288
     37 O          62.0710   88.0830    9.5038 O.2     1  UNL1       -0.2753
     38 H          59.7182   90.4267    8.4453 H       1  UNL1        0.1449
     39 H          59.7238   88.7435    8.1721 H       1  UNL1        0.1449
@<TRIPOS>BOND
     1    24    25    1
     2    23    25    1
     3    23    26    1
     4    26    27    1
     5    27    28    2
     6    27    29    2
     7    27    30    1
     8    30    31    1
     9    30    32    1
    10    30    33    1
    11    23     1    1
    12     1     2   am
    13     2     3    2
    14     2     4    1
    15     4     5    1
    16     4    34    1
    17    34    35    1
    18    35    36   am
    19    35    37    2
    20     4     6    1
    21     6     7    1
    22     7     9    1
    23     9    10   ar
    24    10    11   ar
    25    11    12   ar
    26    12    13   ar
    27    13    14    1
    28    13    15   ar
    29     7     8    1
    30     8    16    1
    31    16    17   ar
    32    17    18   ar
    33    18    19   ar
    34    19    20    1
    35    19    21   ar
    36    21    22   ar
    37     8     1    1
    38    22    16   ar
    39    15     9   ar
    40    36    38    1
    41    36    39    1
@<TRIPOS>MOLECULE
*****
 39 41 0 0 0
SMALL
GASTEIGER

@<TRIPOS>ATOM
      1 N          63.7302   85.9203   13.1486 N.am    1  UNL1       -0.2770
      2 C          63.7125   87.3532   13.5916 C.2     1  UNL1        0.2254
      3 O          64.2561   87.7287   14.9383 O.2     1  UNL1       -0.2749
      4 C          63.1511   88.4108   12.6880 C.3     1  UNL1        0.0780
      5 C          63.5477   89.2553   13.8626 C.3     1  UNL1        0.0096
      6 C          62.6075   88.0354   11.3414 C.3     1  UNL1        0.0154
      7 C          62.6252   86.6025   10.8983 C.3     1  UNL1        0.0452
      8 C          63.1866   85.5449   11.8019 C.3     1  UNL1        0.1018
      9 C          62.0816   86.2270    9.5516 C.ar    1  UNL1       -0.0197
     10 C          62.9391   85.4705    8.5810 C.ar    1  UNL1       -0.0042
     11 C          62.3955   85.0951    7.2342 C.ar    1  UNL1        0.0005
     12 C          60.9943   85.4762    6.8583 C.ar    1  UNL1        0.0114
     13 C          60.1367   86.2328    7.8290 C.ar    1  UNL1        0.0574
     14 CL         58.7355   86.6139    7.4531 Cl      1  UNL1       -0.0823
     15 C          60.6804   86.6082    9.1756 C.ar    1  UNL1        0.0072
     16 C          63.2042   84.1119   11.3588 C.ar    1  UNL1       -0.0039
     17 C          64.4696   83.5069   10.8270 C.ar    1  UNL1       -0.0018
     18 C          64.4873   82.0740   10.3839 C.ar    1  UNL1        0.0111
     19 C          63.2397   81.2460   10.4726 C.ar    1  UNL1        0.0577
     20 CL         63.2574   79.8131   10.0295 Cl      1  UNL1       -0.0822
     21 C          61.9743   81.8510   11.0043 C.ar    1  UNL1        0.0111
     22 C          61.9566   83.2840   11.4475 C.ar    1  UNL1       -0.0018
     23 C          64.2915   84.8627   14.0522 C.3     1  UNL1        0.0991
     24 C          66.6415   85.4281   15.0051 C.3     1  UNL1        0.0018
     25 C          65.7708   84.6176   14.0913 C.3     1  UNL1        0.0216
     26 C          63.3736   84.0503   14.9166 C.3     1  UNL1        0.1703
     27 S          63.0410   82.6377   14.5373 S.O2    1  UNL1       -0.0115
     28 O          64.4758   82.3983   14.1712 O.2     1  UNL1       -0.1730
     29 O          61.6063   82.8771   14.9035 O.2     1  UNL1       -0.1730
     30 C          62.7085   81.2251   14.1580 C.3     1  UNL1        0.1108
     31 C          64.1608   80.9525   13.8999 C.3     1  UNL1        0.0236
     32 C          61.2562   81.4976   14.4162 C.3     1  UNL1        0.0236
     33 C          62.3760   79.8124   13.7787 C.3     1  UNL1        0.0236
     34 C          62.7275   89.7617   12.1924 C.3     1  UNL1        0.0934
     35 C          61.2984   90.0048   11.8069 C.2     1  UNL1        0.2198
     36 N          60.1968   89.6928   12.7758 N.am    1  UNL1       -0.3288
     37 O          60.9711   90.5601   10.4525 O.2     1  UNL1       -0.2753
     38 H          60.4116   89.3283   13.6648 H       1  UNL1        0.1449
     39 H          59.2588   89.8524   12.5228 H       1  UNL1        0.1449
@<TRIPOS>BOND
     1    24    25    1
     2    23    25    1
     3    23    26    1
     4    26    27    1
     5    27    28    2
     6    27    29    2
     7    27    30    1
     8    30    31    1
     9    30    32    1
    10    30    33    1
    11    23     1    1
    12     1     2   am
    13     2     3    2
    14     2     4    1
    15     4     5    1
    16     4    34    1
    17    34    35    1
    18    35    36   am
    19    35    37    2
    20     4     6    1
    21     6     7    1
    22     7     9    1
    23     9    10   ar
    24    10    11   ar
    25    11    12   ar
    26    12    13   ar
    27    13    14    1
    28    13    15   ar
    29     7     8    1
    30     8    16    1
    31    16    17   ar
    32    17    18   ar
    33    18    19   ar
    34    19    20    1
    35    19    21   ar
    36    21    22   ar
    37     8     1    1
    38    22    16   ar
    39    15     9   ar
    40    36    38    1
    41    36    39    1
@<TRIPOS>MOLECULE
*****
 39 41 0 0 0
SMALL
GASTEIGER

@<TRIPOS>ATOM
      1 N          63.5324   85.2280   12.5855 N.am    1  UNL1       -0.2770
      2 C          64.1635   85.4579   13.9267 C.2     1  UNL1        0.2254
      3 O          64.7610   84.3075   14.6815 O.2     1  UNL1       -0.2749
      4 C          64.1971   86.8381   14.5131 C.3     1  UNL1        0.0780
      5 C          64.8899   86.0750   15.6030 C.3     1  UNL1        0.0096
      6 C          63.5997   87.9884   13.7584 C.3     1  UNL1        0.0154
      7 C          62.9685   87.7586   12.4172 C.3     1  UNL1        0.0452
      8 C          62.9349   86.3784   11.8308 C.3     1  UNL1        0.1018
      9 C          62.3710   88.9089   11.6624 C.ar    1  UNL1       -0.0197
     10 C          63.1779   89.6200   10.6168 C.ar    1  UNL1       -0.0042
     11 C          62.5804   90.7703    9.8620 C.ar    1  UNL1        0.0005
     12 C          61.1760   91.2096   10.1528 C.ar    1  UNL1        0.0114
     13 C          60.3691   90.4985   11.1984 C.ar    1  UNL1        0.0574
     14 CL         58.9646   90.9378   11.4893 Cl      1  UNL1       -0.0823
     15 C          60.9666   89.3482   11.9532 C.ar    1  UNL1        0.0072
     16 C          62.3037   86.1485   10.4895 C.ar    1  UNL1       -0.0039
     17 C          63.1261   85.6115    9.3558 C.ar    1  UNL1       -0.0018
     18 C          62.4950   85.3816    8.0146 C.ar    1  UNL1        0.0111
     19 C          61.0415   85.6889    7.8070 C.ar    1  UNL1        0.0577
     20 CL         60.4104   85.4590    6.4658 Cl      1  UNL1       -0.0822
     21 C          60.2191   86.2259    8.9408 C.ar    1  UNL1        0.0111
     22 C          60.8503   86.4558   10.2820 C.ar    1  UNL1       -0.0018
     23 C          63.4987   83.8478   11.9991 C.3     1  UNL1        0.0991
     24 C          64.5989   82.5662   10.0250 C.3     1  UNL1        0.0018
     25 C          64.7207   83.2846   11.3361 C.3     1  UNL1        0.0216
     26 C          62.2431   83.0308   12.0756 C.3     1  UNL1        0.1703
     27 S          62.2118   81.7793   12.9019 S.O2    1  UNL1       -0.0115
     28 O          62.4201   80.9572   11.6647 O.2     1  UNL1       -0.1730
     29 O          62.0035   82.6015   14.1391 O.2     1  UNL1       -0.1730
     30 C          62.1805   80.5279   13.7282 C.3     1  UNL1        0.1108
     31 C          63.6581   80.3609   13.5314 C.3     1  UNL1        0.0236
     32 C          60.7028   80.6948   13.9251 C.3     1  UNL1        0.0236
     33 C          62.1491   79.2764   14.5546 C.3     1  UNL1        0.0236
     34 C          64.4714   87.9532   15.4781 C.3     1  UNL1        0.0934
     35 C          63.3551   88.5237   16.3019 C.2     1  UNL1        0.2198
     36 N          63.2044   90.0102   16.4340 N.am    1  UNL1       -0.3288
     37 O          62.3895   87.6076   16.9935 O.2     1  UNL1       -0.2753
     38 H          63.8381   90.6115   15.9800 H       1  UNL1        0.1449
     39 H          62.4718   90.3846   16.9746 H       1  UNL1        0.1449
@<TRIPOS>BOND
     1    24    25    1
     2    23    25    1
     3    23    26    1
     4    26    27    1
     5    27    28    2
     6    27    29    2
     7    27    30    1
     8    30    31    1
     9    30    32    1
    10    30    33    1
    11    23     1    1
    12     1     2   am
    13     2     3    2
    14     2     4    1
    15     4     5    1
    16     4    34    1
    17    34    35    1
    18    35    36   am
    19    35    37    2
    20     4     6    1
    21     6     7    1
    22     7     9    1
    23     9    10   ar
    24    10    11   ar
    25    11    12   ar
    26    12    13   ar
    27    13    14    1
    28    13    15   ar
    29     7     8    1
    30     8    16    1
    31    16    17   ar
    32    17    18   ar
    33    18    19   ar
    34    19    20    1
    35    19    21   ar
    36    21    22   ar
    37     8     1    1
    38    22    16   ar
    39    15     9   ar
    40    36    38    1
    41    36    39    1
@<TRIPOS>MOLECULE
*****
 39 41 0 0 0
SMALL
GASTEIGER

@<TRIPOS>ATOM
      1 N          63.0598   90.1825   11.9194 N.am    1  UNL1       -0.2770
      2 C          63.2500   91.0424   10.7051 C.2     1  UNL1        0.2254
      3 O          62.4357   90.7884    9.4712 O.2     1  UNL1       -0.2749
      4 C          64.2545   92.1562   10.7247 C.3     1  UNL1        0.0780
      5 C          63.7252   92.3072    9.3294 C.3     1  UNL1        0.0096
      6 C          65.0688   92.4101   11.9585 C.3     1  UNL1        0.0154
      7 C          64.8786   91.5503   13.1728 C.3     1  UNL1        0.0452
      8 C          63.8741   90.4365   13.1532 C.3     1  UNL1        0.1018
      9 C          65.6929   91.8042   14.4067 C.ar    1  UNL1       -0.0197
     10 C          65.0092   92.0594   15.7172 C.ar    1  UNL1       -0.0042
     11 C          65.8235   92.3134   16.9511 C.ar    1  UNL1        0.0005
     12 C          67.3216   92.3121   16.8744 C.ar    1  UNL1        0.0114
     13 C          68.0053   92.0569   15.5639 C.ar    1  UNL1        0.0574
     14 CL         69.5033   92.0556   15.4872 Cl      1  UNL1       -0.0823
     15 C          67.1910   91.8029   14.3301 C.ar    1  UNL1        0.0072
     16 C          63.6839   89.5766   14.3676 C.ar    1  UNL1       -0.0039
     17 C          62.8601   90.0749   15.5178 C.ar    1  UNL1       -0.0018
     18 C          62.6699   89.2152   16.7321 C.ar    1  UNL1        0.0111
     19 C          63.3035   87.8570   16.7962 C.ar    1  UNL1        0.0577
     20 CL         63.1132   86.9972   18.0105 Cl      1  UNL1       -0.0822
     21 C          64.1273   87.3587   15.6460 C.ar    1  UNL1        0.0111
     22 C          64.3175   88.2186   14.4316 C.ar    1  UNL1       -0.0018
     23 C          62.0553   89.0687   11.8998 C.3     1  UNL1        0.0991
     24 C          59.7567   90.2099   11.4947 C.3     1  UNL1        0.0018
     25 C          60.6404   89.3273   12.3254 C.3     1  UNL1        0.0216
     26 C          62.4656   87.6964   11.4547 C.3     1  UNL1        0.1703
     27 S          61.8380   87.0836   10.2379 S.O2    1  UNL1       -0.0115
     28 O          60.9887   86.2121   11.1149 O.2     1  UNL1       -0.1730
     29 O          62.6873   87.9552    9.3609 O.2     1  UNL1       -0.1730
     30 C          61.2103   86.4709    9.0211 C.3     1  UNL1        0.1108
     31 C          62.4957   85.7606    8.7157 C.3     1  UNL1        0.0236
     32 C          59.9249   87.1812    9.3264 C.3     1  UNL1        0.0236
     33 C          60.5826   85.8581    7.8043 C.3     1  UNL1        0.0236
     34 C          65.0752   93.3224   10.2596 C.3     1  UNL1        0.0934
     35 C          66.5726   93.2575   10.3204 C.2     1  UNL1        0.2198
     36 N          67.3586   94.4607   10.7500 N.am    1  UNL1       -0.3288
     37 O          67.2839   91.9895    9.9517 O.2     1  UNL1       -0.2753
     38 H          66.8917   95.2930   10.9920 H       1  UNL1        0.1449
     39 H          68.3414   94.4181   10.7899 H       1  UNL1        0.1449
@<TRIPOS>BOND
     1    24    25    1
     2    23    25    1
     3    23    26    1
     4    26    27    1
     5    27    28    2
     6    27    29    2
     7    27    30    1
     8    30    31    1
     9    30    32    1
    10    30    33    1
    11    23     1    1
    12     1     2   am
    13     2     3    2
    14     2     4    1
    15     4     5    1
    16     4    34    1
    17    34    35    1
    18    35    36   am
    19    35    37    2
    20     4     6    1
    21     6     7    1
    22     7     9    1
    23     9    10   ar
    24    10    11   ar
    25    11    12   ar
    26    12    13   ar
    27    13    14    1
    28    13    15   ar
    29     7     8    1
    30     8    16    1
    31    16    17   ar
    32    17    18   ar
    33    18    19   ar
    34    19    20    1
    35    19    21   ar
    36    21    22   ar
    37     8     1    1
    38    22    16   ar
    39    15     9   ar
    40    36    38    1
    41    36    39    1
@<TRIPOS>MOLECULE
*****
 39 41 0 0 0
SMALL
GASTEIGER

@<TRIPOS>ATOM
      1 N          60.9189   94.4500   -2.3448 N.am    1  UNL1       -0.2770
      2 C          59.8042   93.7611   -3.0749 C.2     1  UNL1        0.2254
      3 O          59.5153   94.1108   -4.5047 O.2     1  UNL1       -0.2749
      4 C          58.9785   92.7226   -2.3752 C.3     1  UNL1        0.0780
      5 C          58.3239   92.7101   -3.7248 C.3     1  UNL1        0.0096
      6 C          59.2674   92.3729   -0.9454 C.3     1  UNL1        0.0154
      7 C          60.3820   93.0617   -0.2154 C.3     1  UNL1        0.0452
      8 C          61.2077   94.1003   -0.9150 C.3     1  UNL1        0.1018
      9 C          60.6709   92.7121    1.2145 C.ar    1  UNL1       -0.0197
     10 C          59.6850   93.0677    2.2875 C.ar    1  UNL1       -0.0042
     11 C          59.9739   92.7180    3.7173 C.ar    1  UNL1        0.0005
     12 C          61.2488   92.0127    4.0740 C.ar    1  UNL1        0.0114
     13 C          62.2347   91.6570    3.0009 C.ar    1  UNL1        0.0574
     14 CL         63.5096   90.9517    3.3576 Cl      1  UNL1       -0.0823
     15 C          61.9457   92.0067    1.5712 C.ar    1  UNL1        0.0072
     16 C          62.3224   94.7892   -0.1849 C.ar    1  UNL1       -0.0039
     17 C          63.7056   94.2095   -0.2089 C.ar    1  UNL1       -0.0018
     18 C          64.8203   94.8983    0.5212 C.ar    1  UNL1        0.0111
     19 C          64.5517   96.1668    1.2754 C.ar    1  UNL1        0.0577
     20 CL         65.6663   96.8556    2.0055 Cl      1  UNL1       -0.0822
     21 C          63.1684   96.7465    1.2994 C.ar    1  UNL1        0.0111
     22 C          62.0538   96.0577    0.5692 C.ar    1  UNL1       -0.0018
     23 C          61.7446   95.4885   -3.0445 C.3     1  UNL1        0.0991
     24 C          60.3217   96.8559   -4.7342 C.3     1  UNL1        0.0018
     25 C          61.1192   96.7852   -3.4658 C.3     1  UNL1        0.0216
     26 C          63.1958   95.2305   -3.3228 C.3     1  UNL1        0.1703
     27 S          63.5927   94.2602   -4.3957 S.O2    1  UNL1       -0.0115
     28 O          63.8615   93.2165   -3.3523 O.2     1  UNL1       -0.1730
     29 O          63.3238   95.3039   -5.4390 O.2     1  UNL1       -0.1730
     30 C          63.9896   93.2899   -5.4685 C.3     1  UNL1        0.1108
     31 C          64.5886   92.3875   -4.4308 C.3     1  UNL1        0.0236
     32 C          63.3906   94.1923   -6.5062 C.3     1  UNL1        0.0236
     33 C          64.3865   92.3197   -6.5414 C.3     1  UNL1        0.0236
     34 C          57.9254   91.6797   -2.1443 C.3     1  UNL1        0.0934
     35 C          56.4939   92.0877   -1.9584 C.2     1  UNL1        0.2198
     36 N          55.3916   91.2185   -2.4868 N.am    1  UNL1       -0.3288
     37 O          56.1649   93.3649   -1.2440 O.2     1  UNL1       -0.2753
     38 H          55.6076   90.3802   -2.9556 H       1  UNL1        0.1449
     39 H          54.4521   91.4863   -2.3647 H       1  UNL1        0.1449
@<TRIPOS>BOND
     1    24    25    1
     2    23    25    1
     3    23    26    1
     4    26    27    1
     5    27    28    2
     6    27    29    2
     7    27    30    1
     8    30    31    1
     9    30    32    1
    10    30    33    1
    11    23     1    1
    12     1     2   am
    13     2     3    2
    14     2     4    1
    15     4     5    1
    16     4    34    1
    17    34    35    1
    18    35    36   am
    19    35    37    2
    20     4     6    1
    21     6     7    1
    22     7     9    1
    23     9    10   ar
    24    10    11   ar
    25    11    12   ar
    26    12    13   ar
    27    13    14    1
    28    13    15   ar
    29     7     8    1
    30     8    16    1
    31    16    17   ar
    32    17    18   ar
    33    18    19   ar
    34    19    20    1
    35    19    21   ar
    36    21    22   ar
    37     8     1    1
    38    22    16   ar
    39    15     9   ar
    40    36    38    1
    41    36    39    1
@<TRIPOS>MOLECULE
*****
 39 41 0 0 0
SMALL
GASTEIGER

@<TRIPOS>ATOM
      1 N          60.7531   94.4332   -4.2901 N.am    1  UNL1       -0.2770
      2 C          59.4301   94.0322   -4.8720 C.2     1  UNL1        0.2254
      3 O          59.2931   93.8252   -6.3513 O.2     1  UNL1       -0.2749
      4 C          58.2439   93.8381   -3.9745 C.3     1  UNL1        0.0780
      5 C          57.6198   93.5261   -5.3023 C.3     1  UNL1        0.0096
      6 C          58.3809   94.0450   -2.4952 C.3     1  UNL1        0.0154
      7 C          59.7040   94.4460   -1.9134 C.3     1  UNL1        0.0452
      8 C          60.8901   94.6401   -2.8108 C.3     1  UNL1        0.1018
      9 C          59.8410   94.6529   -0.4340 C.ar    1  UNL1       -0.0197
     10 C          59.9551   96.0415    0.1217 C.ar    1  UNL1       -0.0042
     11 C          60.0921   96.2484    1.6011 C.ar    1  UNL1        0.0005
     12 C          60.1150   95.0667    2.5247 C.ar    1  UNL1        0.0114
     13 C          60.0010   93.6781    1.9689 C.ar    1  UNL1        0.0574
     14 CL         60.0239   92.4964    2.8926 Cl      1  UNL1       -0.0823
     15 C          59.8640   93.4712    0.4896 C.ar    1  UNL1        0.0072
     16 C          62.2132   95.0411   -2.2289 C.ar    1  UNL1       -0.0039
     17 C          63.0539   94.0285   -1.5092 C.ar    1  UNL1       -0.0018
     18 C          64.3770   94.4295   -0.9273 C.ar    1  UNL1        0.0111
     19 C          64.8595   95.8431   -1.0651 C.ar    1  UNL1        0.0577
     20 CL         66.1825   96.2441   -0.4832 Cl      1  UNL1       -0.0822
     21 C          64.0188   96.8558   -1.7848 C.ar    1  UNL1        0.0111
     22 C          62.6957   96.4547   -2.3667 C.ar    1  UNL1       -0.0018
     23 C          61.9393   94.6273   -5.1876 C.3     1  UNL1        0.0991
     24 C          61.4717   96.1748   -7.2214 C.3     1  UNL1        0.0018
     25 C          62.1362   95.9334   -5.8984 C.3     1  UNL1        0.0216
     26 C          62.9285   93.5153   -5.3742 C.3     1  UNL1        0.1703
     27 S          64.2755   93.8017   -5.9689 S.O2    1  UNL1       -0.0115
     28 O          63.7694   93.3818   -7.3171 O.2     1  UNL1       -0.1730
     29 O          64.7815   94.2216   -4.6207 O.2     1  UNL1       -0.1730
     30 C          65.6224   94.0881   -6.5637 C.3     1  UNL1        0.1108
     31 C          65.5950   92.7621   -7.2643 C.3     1  UNL1        0.0236
     32 C          65.6499   95.4141   -5.8630 C.3     1  UNL1        0.0236
     33 C          66.9694   94.3745   -7.1584 C.3     1  UNL1        0.0236
     34 C          56.8410   93.5356   -3.5383 C.3     1  UNL1        0.0934
     35 C          56.5197   92.2115   -2.9110 C.2     1  UNL1        0.2198
     36 N          56.7820   90.9413   -3.6644 N.am    1  UNL1       -0.3288
     37 O          55.9361   92.1576   -1.5302 O.2     1  UNL1       -0.2753
     38 H          57.1651   90.9766   -4.5706 H       1  UNL1        0.1449
     39 H          56.5711   90.0722   -3.2527 H       1  UNL1        0.1449
@<TRIPOS>BOND
     1    24    25    1
     2    23    25    1
     3    23    26    1
     4    26    27    1
     5    27    28    2
     6    27    29    2
     7    27    30    1
     8    30    31    1
     9    30    32    1
    10    30    33    1
    11    23     1    1
    12     1     2   am
    13     2     3    2
    14     2     4    1
    15     4     5    1
    16     4    34    1
    17    34    35    1
    18    35    36   am
    19    35    37    2
    20     4     6    1
    21     6     7    1
    22     7     9    1
    23     9    10   ar
    24    10    11   ar
    25    11    12   ar
    26    12    13   ar
    27    13    14    1
    28    13    15   ar
    29     7     8    1
    30     8    16    1
    31    16    17   ar
    32    17    18   ar
    33    18    19   ar
    34    19    20    1
    35    19    21   ar
    36    21    22   ar
    37     8     1    1
    38    22    16   ar
    39    15     9   ar
    40    36    38    1
    41    36    39    1
@<TRIPOS>MOLECULE
*****
 39 41 0 0 0
SMALL
GASTEIGER

@<TRIPOS>ATOM
      1 N          62.6895   88.1010   12.5214 N.am    1  UNL1       -0.2770
      2 C          63.1380   88.3994   13.9212 C.2     1  UNL1        0.2254
      3 O          63.1306   89.8118   14.4263 O.2     1  UNL1       -0.2749
      4 C          63.5941   87.2853   14.8162 C.3     1  UNL1        0.0780
      5 C          63.7657   88.4515   15.7438 C.3     1  UNL1        0.0096
      6 C          63.6015   85.8729   14.3112 C.3     1  UNL1        0.0154
      7 C          63.1530   85.5746   12.9114 C.3     1  UNL1        0.0452
      8 C          62.6969   86.6886   12.0164 C.3     1  UNL1        0.1018
      9 C          63.1604   84.1621   12.4063 C.ar    1  UNL1       -0.0197
     10 C          63.9039   83.8188   11.1497 C.ar    1  UNL1       -0.0042
     11 C          63.9114   82.4064   10.6447 C.ar    1  UNL1        0.0005
     12 C          63.1753   81.3372   11.3964 C.ar    1  UNL1        0.0114
     13 C          62.4317   81.6805   12.6531 C.ar    1  UNL1        0.0574
     14 CL         61.6956   80.6114   13.4049 Cl      1  UNL1       -0.0823
     15 C          62.4243   83.0929   13.1581 C.ar    1  UNL1        0.0072
     16 C          62.2483   86.3902   10.6165 C.ar    1  UNL1       -0.0039
     17 C          60.7949   86.4859   10.2582 C.ar    1  UNL1       -0.0018
     18 C          60.3463   86.1875    8.8584 C.ar    1  UNL1        0.0111
     19 C          61.3511   85.7934    7.8167 C.ar    1  UNL1        0.0577
     20 CL         60.9025   85.4950    6.4168 Cl      1  UNL1       -0.0822
     21 C          62.8046   85.6977    8.1749 C.ar    1  UNL1        0.0111
     22 C          63.2532   85.9961    9.5749 C.ar    1  UNL1       -0.0018
     23 C          62.2334   89.2151   11.6264 C.3     1  UNL1        0.0991
     24 C          60.1122   90.1088   10.4217 C.3     1  UNL1        0.0018
     25 C          60.8101   89.6854   11.6801 C.3     1  UNL1        0.0216
     26 C          63.2007   89.8588   10.6778 C.3     1  UNL1        0.1703
     27 S          64.0044   91.0466   11.1174 S.O2    1  UNL1       -0.0115
     28 O          64.5542   90.2503   12.2636 O.2     1  UNL1       -0.1730
     29 O          63.4546   91.8428    9.9712 O.2     1  UNL1       -0.1730
     30 C          64.8081   92.2343   11.5570 C.3     1  UNL1        0.1108
     31 C          64.8706   91.6771   12.9482 C.3     1  UNL1        0.0236
     32 C          64.7456   92.7915   10.1657 C.3     1  UNL1        0.0236
     33 C          65.6118   93.4221   11.9966 C.3     1  UNL1        0.0236
     34 C          64.1097   86.5763   16.0333 C.3     1  UNL1        0.0934
     35 C          63.1480   85.9699   17.0118 C.2     1  UNL1        0.2198
     36 N          62.8943   86.6418   18.3287 N.am    1  UNL1       -0.3288
     37 O          62.4399   84.6916   16.6733 O.2     1  UNL1       -0.2753
     38 H          63.3591   87.4808   18.5508 H       1  UNL1        0.1449
     39 H          62.2631   86.2438   18.9708 H       1  UNL1        0.1449
@<TRIPOS>BOND
     1    24    25    1
     2    23    25    1
     3    23    26    1
     4    26    27    1
     5    27    28    2
     6    27    29    2
     7    27    30    1
     8    30    31    1
     9    30    32    1
    10    30    33    1
    11    23     1    1
    12     1     2   am
    13     2     3    2
    14     2     4    1
    15     4     5    1
    16     4    34    1
    17    34    35    1
    18    35    36   am
    19    35    37    2
    20     4     6    1
    21     6     7    1
    22     7     9    1
    23     9    10   ar
    24    10    11   ar
    25    11    12   ar
    26    12    13   ar
    27    13    14    1
    28    13    15   ar
    29     7     8    1
    30     8    16    1
    31    16    17   ar
    32    17    18   ar
    33    18    19   ar
    34    19    20    1
    35    19    21   ar
    36    21    22   ar
    37     8     1    1
    38    22    16   ar
    39    15     9   ar
    40    36    38    1
    41    36    39    1
@<TRIPOS>MOLECULE
*****
 39 41 0 0 0
SMALL
GASTEIGER

@<TRIPOS>ATOM
      1 N          63.6084   85.9218   12.9716 N.am    1  UNL1       -0.2770
      2 C          64.2932   84.6051   13.1890 C.2     1  UNL1        0.2254
      3 O          65.0865   84.3698   14.4401 O.2     1  UNL1       -0.2749
      4 C          64.1846   83.5236   12.1552 C.3     1  UNL1        0.0780
      5 C          65.0439   82.8290   13.1697 C.3     1  UNL1        0.0096
      6 C          63.3913   83.7589   10.9041 C.3     1  UNL1        0.0154
      7 C          62.7066   85.0756   10.6868 C.3     1  UNL1        0.0452
      8 C          62.8151   86.1571   11.7205 C.3     1  UNL1        0.1018
      9 C          61.9132   85.3109    9.4356 C.ar    1  UNL1       -0.0197
     10 C          60.6376   86.0978    9.4933 C.ar    1  UNL1       -0.0042
     11 C          59.8442   86.3331    8.2422 C.ar    1  UNL1        0.0005
     12 C          60.3266   85.7815    6.9334 C.ar    1  UNL1        0.0114
     13 C          61.6024   84.9946    6.8757 C.ar    1  UNL1        0.0574
     14 CL         62.0848   84.4430    5.5669 Cl      1  UNL1       -0.0823
     15 C          62.3956   84.7593    8.1268 C.ar    1  UNL1        0.0072
     16 C          62.1303   87.4738   11.5031 C.ar    1  UNL1       -0.0039
     17 C          60.7350   87.6864   12.0110 C.ar    1  UNL1       -0.0018
     18 C          60.0502   89.0031   11.7936 C.ar    1  UNL1        0.0111
     19 C          60.7607   90.1073   11.0684 C.ar    1  UNL1        0.0577
     20 CL         60.0759   91.4240   10.8510 Cl      1  UNL1       -0.0822
     21 C          62.1560   89.8948   10.5605 C.ar    1  UNL1        0.0111
     22 C          62.8408   88.5780   10.7779 C.ar    1  UNL1       -0.0018
     23 C          63.7170   87.0033   14.0054 C.3     1  UNL1        0.0991
     24 C          62.6342   85.7809   16.0261 C.3     1  UNL1        0.0018
     25 C          63.7195   86.6498   15.4631 C.3     1  UNL1        0.0216
     26 C          63.8229   88.4382   13.5814 C.3     1  UNL1        0.1703
     27 S          63.9220   89.5204   14.6153 S.O2    1  UNL1       -0.0115
     28 O          62.4335   89.7004   14.5695 O.2     1  UNL1       -0.1730
     29 O          65.4104   89.3404   14.6611 O.2     1  UNL1       -0.1730
     30 C          64.0210   90.6026   15.6492 C.3     1  UNL1        0.1108
     31 C          64.9516   91.3696   14.7572 C.3     1  UNL1        0.0236
     32 C          63.0905   89.8356   16.5413 C.3     1  UNL1        0.0236
     33 C          64.1201   91.6848   16.6832 C.3     1  UNL1        0.0236
     34 C          64.3746   82.2009   11.4739 C.3     1  UNL1        0.0934
     35 C          63.2443   81.2161   11.4196 C.2     1  UNL1        0.2198
     36 N          62.3804   80.9987   12.6263 N.am    1  UNL1       -0.3288
     37 O          62.9781   80.4488   10.1585 O.2     1  UNL1       -0.2753
     38 H          62.5551   81.5023   13.4540 H       1  UNL1        0.1449
     39 H          61.6386   80.3524   12.5906 H       1  UNL1        0.1449
@<TRIPOS>BOND
     1    24    25    1
     2    23    25    1
     3    23    26    1
     4    26    27    1
     5    27    28    2
     6    27    29    2
     7    27    30    1
     8    30    31    1
     9    30    32    1
    10    30    33    1
    11    23     1    1
    12     1     2   am
    13     2     3    2
    14     2     4    1
    15     4     5    1
    16     4    34    1
    17    34    35    1
    18    35    36   am
    19    35    37    2
    20     4     6    1
    21     6     7    1
    22     7     9    1
    23     9    10   ar
    24    10    11   ar
    25    11    12   ar
    26    12    13   ar
    27    13    14    1
    28    13    15   ar
    29     7     8    1
    30     8    16    1
    31    16    17   ar
    32    17    18   ar
    33    18    19   ar
    34    19    20    1
    35    19    21   ar
    36    21    22   ar
    37     8     1    1
    38    22    16   ar
    39    15     9   ar
    40    36    38    1
    41    36    39    1
