@<TRIPOS>MOLECULE
*****
 32 36 0 0 0
SMALL
GASTEIGER

@<TRIPOS>ATOM
      1 O          63.6246   87.3745   13.1738 O.2     1  UNL1       -0.2699
      2 C          62.8854   86.7644   12.0199 C.2     1  UNL1        0.2506
      3 N          61.9543   87.6048   11.1972 N.am    1  UNL1       -0.2723
      4 C          61.2151   86.9948   10.0433 C.3     1  UNL1        0.1257
      5 C          60.2839   87.8352    9.2205 C.3     1  UNL1        0.1637
      6 O          60.0921   89.2855    9.5517 O.3     1  UNL1       -0.3502
      7 C          60.8313   89.8955   10.7056 C.3     1  UNL1        0.1622
      8 C          61.7624   89.0552   11.5283 C.3     1  UNL1        0.1096
      9 C          63.0773   85.3140   11.6887 C.ar    1  UNL1        0.0729
     10 C          63.1483   84.8749   10.2562 C.ar    1  UNL1        0.0061
     11 C          63.3402   83.4246    9.9251 C.ar    1  UNL1        0.0002
     12 C          63.4610   82.4134   11.0264 C.ar    1  UNL1        0.0016
     13 C          63.3900   82.8526   12.4589 C.ar    1  UNL1        0.0211
     14 C          63.1981   84.3029   12.7901 C.ar    1  UNL1        0.1072
     15 N          63.1270   84.7421   14.2226 N.ar    1  UNL1       -0.1477
     16 N          64.2802   85.2114   15.0591 N.ar    1  UNL1       -0.1447
     17 C          63.7562   85.5485   16.4236 C.ar    1  UNL1        0.1446
     18 C          62.2791   85.2874   16.4304 C.ar    1  UNL1        0.1446
     19 N          61.8903   84.7891   15.0701 N.ar    1  UNL1       -0.1447
     20 C          62.5016   89.6652   12.6822 C.3     1  UNL1        0.0488
     21 C          63.6021   90.6527   12.4301 C.ar    1  UNL1       -0.0167
     22 C          63.6843   91.3636   11.1118 C.ar    1  UNL1        0.0255
     23 C          64.7849   92.3512   10.8596 C.ar    1  UNL1        0.1414
     24 F          64.8671   93.0621    9.5414 F       1  UNL1       -0.2041
     25 C          65.8031   92.6280   11.9258 C.ar    1  UNL1        0.0505
     26 C          65.7207   91.9171   13.2441 C.ar    1  UNL1        0.1048
     27 C          64.6203   90.9295   13.4962 C.ar    1  UNL1        0.0168
     28 N          66.7389   92.1938   14.3103 N.ar    1  UNL1       -0.1477
     29 N          66.4556   92.3925   15.7698 N.ar    1  UNL1       -0.1447
     30 C          67.7608   92.6419   16.4657 C.ar    1  UNL1        0.1446
     31 C          68.8508   92.5974   15.4362 C.ar    1  UNL1        0.1446
     32 N          68.2194   92.3204   14.1041 N.ar    1  UNL1       -0.1447
@<TRIPOS>BOND
     1     1     2    2
     2     2     9    1
     3     9    10   ar
     4    10    11   ar
     5    11    12   ar
     6    12    13   ar
     7    13    14   ar
     8    14    15    1
     9    15    16   ar
    10    16    17   ar
    11    17    18   ar
    12    18    19   ar
    13     2     3   am
    14     3     4    1
    15     4     5    1
    16     5     6    1
    17     6     7    1
    18     7     8    1
    19     8    20    1
    20    20    21    1
    21    21    22   ar
    22    22    23   ar
    23    23    24    1
    24    23    25   ar
    25    25    26   ar
    26    26    28    1
    27    28    29   ar
    28    29    30   ar
    29    30    31   ar
    30    31    32   ar
    31    26    27   ar
    32    14     9   ar
    33    19    15   ar
    34     8     3    1
    35    27    21   ar
    36    32    28   ar
@<TRIPOS>MOLECULE
*****
 32 36 0 0 0
SMALL
GASTEIGER

@<TRIPOS>ATOM
      1 O          63.7872   87.5134   13.9302 O.2     1  UNL1       -0.2699
      2 C          63.1613   87.0888   12.6348 C.2     1  UNL1        0.2506
      3 N          62.5812   88.1171   11.7096 N.am    1  UNL1       -0.2723
      4 C          61.9552   87.6926   10.4142 C.3     1  UNL1        0.1257
      5 C          61.3751   88.7210    9.4890 C.3     1  UNL1        0.1637
      6 O          61.4209   90.1739    9.8592 O.3     1  UNL1       -0.3502
      7 C          62.0468   90.5984   11.1546 C.3     1  UNL1        0.1622
      8 C          62.6269   89.5701   12.0798 C.3     1  UNL1        0.1096
      9 C          63.1155   85.6359   12.2646 C.ar    1  UNL1        0.0729
     10 C          63.1471   85.2283   10.8214 C.ar    1  UNL1        0.0061
     11 C          63.1013   83.7755   10.4512 C.ar    1  UNL1        0.0002
     12 C          63.0239   82.7302   11.5242 C.ar    1  UNL1        0.0016
     13 C          62.9923   83.1378   12.9674 C.ar    1  UNL1        0.0211
     14 C          63.0381   84.5906   13.3376 C.ar    1  UNL1        0.1072
     15 N          63.0065   84.9982   14.7808 N.ar    1  UNL1       -0.1477
     16 N          61.7805   85.1166   15.6370 N.ar    1  UNL1       -0.1447
     17 C          62.2116   85.5505   17.0066 C.ar    1  UNL1        0.1446
     18 C          63.7041   85.7004   16.9969 C.ar    1  UNL1        0.1446
     19 N          64.1953   85.3590   15.6214 N.ar    1  UNL1       -0.1447
     20 C          63.2528   89.9946   13.3752 C.3     1  UNL1        0.0488
     21 C          64.5217   90.7945   13.3684 C.ar    1  UNL1       -0.0167
     22 C          65.4989   90.6603   14.4984 C.ar    1  UNL1        0.0255
     23 C          66.7679   91.4602   14.4917 C.ar    1  UNL1        0.1414
     24 F          67.7451   91.3260   15.6217 F       1  UNL1       -0.2041
     25 C          67.0595   92.3944   13.3549 C.ar    1  UNL1        0.0505
     26 C          66.0822   92.5286   12.2249 C.ar    1  UNL1        0.1048
     27 C          64.8133   91.7287   12.2316 C.ar    1  UNL1        0.0168
     28 N          66.3738   93.4628   11.0881 N.ar    1  UNL1       -0.1477
     29 N          65.6231   94.7208   10.7659 N.ar    1  UNL1       -0.1447
     30 C          66.2527   95.3385    9.5526 C.ar    1  UNL1        0.1446
     31 C          67.3925   94.4622    9.1249 C.ar    1  UNL1        0.1446
     32 N          67.4674   93.3030   10.0739 N.ar    1  UNL1       -0.1447
@<TRIPOS>BOND
     1     1     2    2
     2     2     9    1
     3     9    10   ar
     4    10    11   ar
     5    11    12   ar
     6    12    13   ar
     7    13    14   ar
     8    14    15    1
     9    15    16   ar
    10    16    17   ar
    11    17    18   ar
    12    18    19   ar
    13     2     3   am
    14     3     4    1
    15     4     5    1
    16     5     6    1
    17     6     7    1
    18     7     8    1
    19     8    20    1
    20    20    21    1
    21    21    22   ar
    22    22    23   ar
    23    23    24    1
    24    23    25   ar
    25    25    26   ar
    26    26    28    1
    27    28    29   ar
    28    29    30   ar
    29    30    31   ar
    30    31    32   ar
    31    26    27   ar
    32    14     9   ar
    33    19    15   ar
    34     8     3    1
    35    27    21   ar
    36    32    28   ar
@<TRIPOS>MOLECULE
*****
 32 36 0 0 0
SMALL
GASTEIGER

@<TRIPOS>ATOM
      1 O          62.6746   90.0483   11.5021 O.2     1  UNL1       -0.2699
      2 C          62.6928   88.5488   11.5347 C.2     1  UNL1        0.2506
      3 N          63.3307   87.8314   12.6872 N.am    1  UNL1       -0.2723
      4 C          63.3490   86.3319   12.7198 C.3     1  UNL1        0.1257
      5 C          63.9870   85.6145   13.8724 C.3     1  UNL1        0.1637
      6 O          64.6067   86.3966   14.9923 O.3     1  UNL1       -0.3502
      7 C          64.5884   87.8961   14.9597 C.3     1  UNL1        0.1622
      8 C          63.9505   88.6135   13.8072 C.3     1  UNL1        0.1096
      9 C          62.0730   87.7667   10.4147 C.ar    1  UNL1        0.0729
     10 C          62.9018   86.7908    9.6331 C.ar    1  UNL1        0.0061
     11 C          62.2821   86.0087    8.5132 C.ar    1  UNL1        0.0002
     12 C          60.8337   86.2024    8.1749 C.ar    1  UNL1        0.0016
     13 C          60.0049   87.1783    8.9565 C.ar    1  UNL1        0.0211
     14 C          60.6246   87.9604   10.0764 C.ar    1  UNL1        0.1072
     15 N          59.7959   88.9362   10.8581 N.ar    1  UNL1       -0.1477
     16 N          59.5752   90.3795   10.5142 N.ar    1  UNL1       -0.1447
     17 C          58.6853   90.9754   11.5644 C.ar    1  UNL1        0.1446
     18 C          58.3559   89.9004   12.5573 C.ar    1  UNL1        0.1446
     19 N          59.0423   88.6401   12.1207 N.ar    1  UNL1       -0.1447
     20 C          63.9323   90.1131   13.7745 C.3     1  UNL1        0.0488
     21 C          65.2218   90.8780   13.7314 C.ar    1  UNL1       -0.0167
     22 C          66.1052   90.9277   14.9426 C.ar    1  UNL1        0.0255
     23 C          67.3948   91.6927   14.8996 C.ar    1  UNL1        0.1414
     24 F          68.2781   91.7424   16.1108 F       1  UNL1       -0.2041
     25 C          67.8009   92.4080   13.6452 C.ar    1  UNL1        0.0505
     26 C          66.9175   92.3583   12.4339 C.ar    1  UNL1        0.1048
     27 C          65.6279   91.5933   12.4771 C.ar    1  UNL1        0.0168
     28 N          67.3236   93.0736   11.1796 N.ar    1  UNL1       -0.1477
     29 N          66.9665   94.4838   10.8137 N.ar    1  UNL1       -0.1447
     30 C          67.5804   94.7860    9.4789 C.ar    1  UNL1        0.1446
     31 C          68.3168   93.5626    9.0197 C.ar    1  UNL1        0.1446
     32 N          68.1582   92.5042   10.0707 N.ar    1  UNL1       -0.1447
@<TRIPOS>BOND
     1     1     2    2
     2     2     9    1
     3     9    10   ar
     4    10    11   ar
     5    11    12   ar
     6    12    13   ar
     7    13    14   ar
     8    14    15    1
     9    15    16   ar
    10    16    17   ar
    11    17    18   ar
    12    18    19   ar
    13     2     3   am
    14     3     4    1
    15     4     5    1
    16     5     6    1
    17     6     7    1
    18     7     8    1
    19     8    20    1
    20    20    21    1
    21    21    22   ar
    22    22    23   ar
    23    23    24    1
    24    23    25   ar
    25    25    26   ar
    26    26    28    1
    27    28    29   ar
    28    29    30   ar
    29    30    31   ar
    30    31    32   ar
    31    26    27   ar
    32    14     9   ar
    33    19    15   ar
    34     8     3    1
    35    27    21   ar
    36    32    28   ar
@<TRIPOS>MOLECULE
*****
 32 36 0 0 0
SMALL
GASTEIGER

@<TRIPOS>ATOM
      1 O          63.6757   88.3329   12.2686 O.2     1  UNL1       -0.2699
      2 C          63.5610   87.3374   13.3848 C.2     1  UNL1        0.2506
      3 N          63.4329   87.8113   14.8021 N.am    1  UNL1       -0.2723
      4 C          63.3182   86.8159   15.9183 C.3     1  UNL1        0.1257
      5 C          63.1902   87.2899   17.3358 C.3     1  UNL1        0.1637
      6 O          63.1769   88.7592   17.6369 O.3     1  UNL1       -0.3502
      7 C          63.2916   89.7547   16.5207 C.3     1  UNL1        0.1622
      8 C          63.4196   89.2808   15.1034 C.3     1  UNL1        0.1096
      9 C          63.5743   85.8680   13.0836 C.ar    1  UNL1        0.0729
     10 C          64.4030   84.9385   13.9198 C.ar    1  UNL1        0.0061
     11 C          64.4163   83.4691   13.6186 C.ar    1  UNL1        0.0002
     12 C          63.6010   82.9293   12.4812 C.ar    1  UNL1        0.0016
     13 C          62.7722   83.8588   11.6450 C.ar    1  UNL1        0.0211
     14 C          62.7589   85.3281   11.9462 C.ar    1  UNL1        0.1072
     15 N          61.9301   86.2576   11.1100 N.ar    1  UNL1       -0.1477
     16 N          62.1519   86.5743    9.6607 N.ar    1  UNL1       -0.1447
     17 C          61.0929   87.5460    9.2312 C.ar    1  UNL1        0.1446
     18 C          60.2168   87.8299   10.4152 C.ar    1  UNL1        0.1446
     19 N          60.7342   87.0337   11.5763 N.ar    1  UNL1       -0.1447
     20 C          63.5343   90.2762   13.9871 C.3     1  UNL1        0.0488
     21 C          64.6491   91.2798   13.9889 C.ar    1  UNL1       -0.0167
     22 C          65.3814   91.5851   15.2618 C.ar    1  UNL1        0.0255
     23 C          66.4962   92.5887   15.2636 C.ar    1  UNL1        0.1414
     24 F          67.2286   92.8940   16.5366 F       1  UNL1       -0.2041
     25 C          66.8786   93.2871   13.9924 C.ar    1  UNL1        0.0505
     26 C          66.1462   92.9819   12.7194 C.ar    1  UNL1        0.1048
     27 C          65.0315   91.9783   12.7176 C.ar    1  UNL1        0.0168
     28 N          66.5286   93.6803   11.4482 N.ar    1  UNL1       -0.1477
     29 N          65.8847   94.9161   10.8930 N.ar    1  UNL1       -0.1447
     30 C          66.5801   95.2651    9.6106 C.ar    1  UNL1        0.1446
     31 C          67.6539   94.2450    9.3732 C.ar    1  UNL1        0.1446
     32 N          67.6221   93.2655   10.5088 N.ar    1  UNL1       -0.1447
@<TRIPOS>BOND
     1     1     2    2
     2     2     9    1
     3     9    10   ar
     4    10    11   ar
     5    11    12   ar
     6    12    13   ar
     7    13    14   ar
     8    14    15    1
     9    15    16   ar
    10    16    17   ar
    11    17    18   ar
    12    18    19   ar
    13     2     3   am
    14     3     4    1
    15     4     5    1
    16     5     6    1
    17     6     7    1
    18     7     8    1
    19     8    20    1
    20    20    21    1
    21    21    22   ar
    22    22    23   ar
    23    23    24    1
    24    23    25   ar
    25    25    26   ar
    26    26    28    1
    27    28    29   ar
    28    29    30   ar
    29    30    31   ar
    30    31    32   ar
    31    26    27   ar
    32    14     9   ar
    33    19    15   ar
    34     8     3    1
    35    27    21   ar
    36    32    28   ar
@<TRIPOS>MOLECULE
*****
 32 36 0 0 0
SMALL
GASTEIGER

@<TRIPOS>ATOM
      1 O          65.0952   85.5891   13.3289 O.2     1  UNL1       -0.2699
      2 C          64.0243   84.8489   14.0742 C.2     1  UNL1        0.2506
      3 N          63.3694   85.4784   15.2678 N.am    1  UNL1       -0.2723
      4 C          62.2986   84.7382   16.0131 C.3     1  UNL1        0.1257
      5 C          61.6436   85.3678   17.2068 C.3     1  UNL1        0.1637
      6 O          62.0595   86.7375   17.6551 O.3     1  UNL1       -0.3502
      7 C          63.1304   87.4776   16.9098 C.3     1  UNL1        0.1622
      8 C          63.7853   86.8481   15.7162 C.3     1  UNL1        0.1096
      9 C          63.6084   83.4792   13.6258 C.ar    1  UNL1        0.0729
     10 C          63.9616   82.2795   14.4541 C.ar    1  UNL1        0.0061
     11 C          63.5457   80.9098   14.0058 C.ar    1  UNL1        0.0002
     12 C          62.7767   80.7398   12.7292 C.ar    1  UNL1        0.0016
     13 C          62.4235   81.9395   11.9010 C.ar    1  UNL1        0.0211
     14 C          62.8394   83.3092   12.3493 C.ar    1  UNL1        0.1072
     15 N          62.4862   84.5089   11.5210 N.ar    1  UNL1       -0.1477
     16 N          62.9036   84.7540   10.1012 N.ar    1  UNL1       -0.1447
     17 C          62.3290   86.0707    9.6699 C.ar    1  UNL1        0.1446
     18 C          61.5565   86.6394   10.8230 C.ar    1  UNL1        0.1446
     19 N          61.6537   85.6742   11.9671 N.ar    1  UNL1       -0.1447
     20 C          64.8561   87.5883   14.9709 C.3     1  UNL1        0.0488
     21 C          64.5176   88.8419   14.2201 C.ar    1  UNL1       -0.0167
     22 C          65.2594   90.1131   14.5099 C.ar    1  UNL1        0.0255
     23 C          64.9209   91.3668   13.7591 C.ar    1  UNL1        0.1414
     24 F          65.6626   92.6379   14.0490 F       1  UNL1       -0.2041
     25 C          63.8407   91.3493   12.7185 C.ar    1  UNL1        0.0505
     26 C          63.0990   90.0781   12.4287 C.ar    1  UNL1        0.1048
     27 C          63.4374   88.8245   13.1795 C.ar    1  UNL1        0.0168
     28 N          62.0188   90.0607   11.3881 N.ar    1  UNL1       -0.1477
     29 N          60.5443   90.1569   11.6461 N.ar    1  UNL1       -0.1447
     30 C          59.8376   90.0996   10.3243 C.ar    1  UNL1        0.1446
     31 C          60.8754   89.9679    9.2492 C.ar    1  UNL1        0.1446
     32 N          62.2234   89.9439    9.9067 N.ar    1  UNL1       -0.1447
@<TRIPOS>BOND
     1     1     2    2
     2     2     9    1
     3     9    10   ar
     4    10    11   ar
     5    11    12   ar
     6    12    13   ar
     7    13    14   ar
     8    14    15    1
     9    15    16   ar
    10    16    17   ar
    11    17    18   ar
    12    18    19   ar
    13     2     3   am
    14     3     4    1
    15     4     5    1
    16     5     6    1
    17     6     7    1
    18     7     8    1
    19     8    20    1
    20    20    21    1
    21    21    22   ar
    22    22    23   ar
    23    23    24    1
    24    23    25   ar
    25    25    26   ar
    26    26    28    1
    27    28    29   ar
    28    29    30   ar
    29    30    31   ar
    30    31    32   ar
    31    26    27   ar
    32    14     9   ar
    33    19    15   ar
    34     8     3    1
    35    27    21   ar
    36    32    28   ar
@<TRIPOS>MOLECULE
*****
 32 36 0 0 0
SMALL
GASTEIGER

@<TRIPOS>ATOM
      1 O          64.9601   85.6549   13.2045 O.2     1  UNL1       -0.2699
      2 C          63.9410   84.9066   14.0116 C.2     1  UNL1        0.2506
      3 N          63.3075   85.5550   15.2067 N.am    1  UNL1       -0.2723
      4 C          62.2884   84.8066   16.0138 C.3     1  UNL1        0.1257
      5 C          61.6549   85.4551   17.2089 C.3     1  UNL1        0.1637
      6 O          62.0406   86.8517   17.5969 O.3     1  UNL1       -0.3502
      7 C          63.0597   87.6000   16.7898 C.3     1  UNL1        0.1622
      8 C          63.6932   86.9517   15.5947 C.3     1  UNL1        0.1096
      9 C          63.5553   83.5099   13.6235 C.ar    1  UNL1        0.0729
     10 C          63.8768   82.3625   14.5346 C.ar    1  UNL1        0.0061
     11 C          63.4912   80.9659   14.1466 C.ar    1  UNL1        0.0002
     12 C          62.7841   80.7166   12.8475 C.ar    1  UNL1        0.0016
     13 C          62.4626   81.8640   11.9363 C.ar    1  UNL1        0.0211
     14 C          62.8482   83.2606   12.3243 C.ar    1  UNL1        0.1072
     15 N          62.5268   84.4080   11.4132 N.ar    1  UNL1       -0.1477
     16 N          63.0316   84.5898   10.0125 N.ar    1  UNL1       -0.1447
     17 C          62.4608   85.8692    9.4764 C.ar    1  UNL1        0.1446
     18 C          61.6032   86.4781   10.5458 C.ar    1  UNL1        0.1446
     19 N          61.6440   85.5750   11.7428 N.ar    1  UNL1       -0.1447
     20 C          64.7123   87.7000   14.7876 C.3     1  UNL1        0.0488
     21 C          64.2806   88.8166   13.8839 C.ar    1  UNL1       -0.0167
     22 C          63.0968   88.6354   12.9808 C.ar    1  UNL1        0.0255
     23 C          62.6650   89.7520   12.0770 C.ar    1  UNL1        0.1414
     24 F          61.4812   89.5708   11.1738 F       1  UNL1       -0.2041
     25 C          63.4171   91.0499   12.0764 C.ar    1  UNL1        0.0505
     26 C          64.6010   91.2310   12.9796 C.ar    1  UNL1        0.1048
     27 C          65.0327   90.1144   13.8833 C.ar    1  UNL1        0.0168
     28 N          65.3530   92.5289   12.9790 N.ar    1  UNL1       -0.1477
     29 N          65.5722   93.4204   11.7928 N.ar    1  UNL1       -0.1447
     30 C          66.3726   94.6056   12.2452 C.ar    1  UNL1        0.1446
     31 C          66.6482   94.4465   13.7111 C.ar    1  UNL1        0.1446
     32 N          66.0181   93.1630   14.1647 N.ar    1  UNL1       -0.1447
@<TRIPOS>BOND
     1     1     2    2
     2     2     9    1
     3     9    10   ar
     4    10    11   ar
     5    11    12   ar
     6    12    13   ar
     7    13    14   ar
     8    14    15    1
     9    15    16   ar
    10    16    17   ar
    11    17    18   ar
    12    18    19   ar
    13     2     3   am
    14     3     4    1
    15     4     5    1
    16     5     6    1
    17     6     7    1
    18     7     8    1
    19     8    20    1
    20    20    21    1
    21    21    22   ar
    22    22    23   ar
    23    23    24    1
    24    23    25   ar
    25    25    26   ar
    26    26    28    1
    27    28    29   ar
    28    29    30   ar
    29    30    31   ar
    30    31    32   ar
    31    26    27   ar
    32    14     9   ar
    33    19    15   ar
    34     8     3    1
    35    27    21   ar
    36    32    28   ar
@<TRIPOS>MOLECULE
*****
 32 36 0 0 0
SMALL
GASTEIGER

@<TRIPOS>ATOM
      1 O          59.6917   91.7361   -0.5684 O.2     1  UNL1       -0.2699
      2 C          60.2567   93.0370   -0.0802 C.2     1  UNL1        0.2506
      3 N          59.4496   94.2959   -0.1964 N.am    1  UNL1       -0.2723
      4 C          60.0147   95.5968    0.2919 C.3     1  UNL1        0.1257
      5 C          59.2075   96.8558    0.1757 C.3     1  UNL1        0.1637
      6 O          57.8353   96.8139   -0.4287 O.3     1  UNL1       -0.3502
      7 C          57.2702   95.5130   -0.9170 C.3     1  UNL1        0.1622
      8 C          58.0774   94.2540   -0.8008 C.3     1  UNL1        0.1096
      9 C          61.6290   93.0789    0.5242 C.ar    1  UNL1        0.0729
     10 C          61.8366   92.6426    1.9443 C.ar    1  UNL1        0.0061
     11 C          63.2088   92.6845    2.5487 C.ar    1  UNL1        0.0002
     12 C          64.3733   93.1626    1.7331 C.ar    1  UNL1        0.0016
     13 C          64.1656   93.5989    0.3130 C.ar    1  UNL1        0.0211
     14 C          62.7935   93.5570   -0.2914 C.ar    1  UNL1        0.1072
     15 N          62.5858   93.9933   -1.7115 N.ar    1  UNL1       -0.1477
     16 N          62.3682   95.4021   -2.1782 N.ar    1  UNL1       -0.1447
     17 C          62.2072   95.3768   -3.6693 C.ar    1  UNL1        0.1446
     18 C          62.3254   93.9523   -4.1242 C.ar    1  UNL1        0.1446
     19 N          62.5594   93.0973   -2.9142 N.ar    1  UNL1       -0.1447
     20 C          57.5123   92.9531   -1.2890 C.3     1  UNL1        0.0488
     21 C          57.3612   92.7064   -2.7608 C.ar    1  UNL1       -0.0167
     22 C          58.2616   93.4065   -3.7350 C.ar    1  UNL1        0.0255
     23 C          58.1105   93.1598   -5.2069 C.ar    1  UNL1        0.1414
     24 F          59.0109   93.8599   -6.1810 F       1  UNL1       -0.2041
     25 C          57.0590   92.2128   -5.7045 C.ar    1  UNL1        0.0505
     26 C          56.1586   91.5127   -4.7303 C.ar    1  UNL1        0.1048
     27 C          56.3097   91.7594   -3.2585 C.ar    1  UNL1        0.0168
     28 N          55.1071   90.5657   -5.2279 N.ar    1  UNL1       -0.1477
     29 N          54.4953   90.5681   -6.5975 N.ar    1  UNL1       -0.1447
     30 C          53.4929   89.4540   -6.6594 C.ar    1  UNL1        0.1446
     31 C          53.4851   88.7630   -5.3281 C.ar    1  UNL1        0.1446
     32 N          54.4827   89.4500   -4.4433 N.ar    1  UNL1       -0.1447
@<TRIPOS>BOND
     1     1     2    2
     2     2     9    1
     3     9    10   ar
     4    10    11   ar
     5    11    12   ar
     6    12    13   ar
     7    13    14   ar
     8    14    15    1
     9    15    16   ar
    10    16    17   ar
    11    17    18   ar
    12    18    19   ar
    13     2     3   am
    14     3     4    1
    15     4     5    1
    16     5     6    1
    17     6     7    1
    18     7     8    1
    19     8    20    1
    20    20    21    1
    21    21    22   ar
    22    22    23   ar
    23    23    24    1
    24    23    25   ar
    25    25    26   ar
    26    26    28    1
    27    28    29   ar
    28    29    30   ar
    29    30    31   ar
    30    31    32   ar
    31    26    27   ar
    32    14     9   ar
    33    19    15   ar
    34     8     3    1
    35    27    21   ar
    36    32    28   ar
@<TRIPOS>MOLECULE
*****
 32 36 0 0 0
SMALL
GASTEIGER

@<TRIPOS>ATOM
      1 O          63.4941   87.9585   11.9806 O.2     1  UNL1       -0.2699
      2 C          63.5054   87.2255   13.2893 C.2     1  UNL1        0.2506
      3 N          63.3856   87.9866   14.5763 N.am    1  UNL1       -0.2723
      4 C          63.3969   87.2535   15.8849 C.3     1  UNL1        0.1257
      5 C          63.2771   88.0147   17.1720 C.3     1  UNL1        0.1637
      6 O          63.1460   89.5087   17.1503 O.3     1  UNL1       -0.3502
      7 C          63.1347   90.2418   15.8417 C.3     1  UNL1        0.1622
      8 C          63.2545   89.4807   14.5547 C.3     1  UNL1        0.1096
      9 C          63.6365   85.7313   13.3109 C.ar    1  UNL1        0.0729
     10 C          64.4070   85.0619   14.4100 C.ar    1  UNL1        0.0061
     11 C          64.5381   83.5678   14.4317 C.ar    1  UNL1        0.0002
     12 C          63.8987   82.7432   13.3541 C.ar    1  UNL1        0.0016
     13 C          63.1282   83.4126   12.2550 C.ar    1  UNL1        0.0211
     14 C          62.9971   84.9067   12.2333 C.ar    1  UNL1        0.1072
     15 N          62.2266   85.5762   11.1342 N.ar    1  UNL1       -0.1477
     16 N          60.9823   86.3967   11.3029 N.ar    1  UNL1       -0.1447
     17 C          60.5518   86.8703    9.9463 C.ar    1  UNL1        0.1446
     18 C          61.5300   86.3424    8.9391 C.ar    1  UNL1        0.1446
     19 N          62.5650   85.5426    9.6732 N.ar    1  UNL1       -0.1447
     20 C          63.2432   90.2137   13.2460 C.3     1  UNL1        0.0488
     21 C          64.3615   91.1525   12.9025 C.ar    1  UNL1       -0.0167
     22 C          64.4453   91.7481   11.5284 C.ar    1  UNL1        0.0255
     23 C          65.5637   92.6869   11.1848 C.ar    1  UNL1        0.1414
     24 F          65.6475   93.2826    9.8108 F       1  UNL1       -0.2041
     25 C          66.5983   93.0300   12.2154 C.ar    1  UNL1        0.0505
     26 C          66.5144   92.4342   13.5895 C.ar    1  UNL1        0.1048
     27 C          65.3961   91.4955   13.9330 C.ar    1  UNL1        0.0168
     28 N          67.5490   92.7773   14.6201 N.ar    1  UNL1       -0.1477
     29 N          68.0241   94.1571   14.9671 N.ar    1  UNL1       -0.1447
     30 C          69.0588   94.0334   16.0461 C.ar    1  UNL1        0.1446
     31 C          69.2231   92.5771   16.3659 C.ar    1  UNL1        0.1446
     32 N          68.2900   91.8007   15.4846 N.ar    1  UNL1       -0.1447
@<TRIPOS>BOND
     1     1     2    2
     2     2     9    1
     3     9    10   ar
     4    10    11   ar
     5    11    12   ar
     6    12    13   ar
     7    13    14   ar
     8    14    15    1
     9    15    16   ar
    10    16    17   ar
    11    17    18   ar
    12    18    19   ar
    13     2     3   am
    14     3     4    1
    15     4     5    1
    16     5     6    1
    17     6     7    1
    18     7     8    1
    19     8    20    1
    20    20    21    1
    21    21    22   ar
    22    22    23   ar
    23    23    24    1
    24    23    25   ar
    25    25    26   ar
    26    26    28    1
    27    28    29   ar
    28    29    30   ar
    29    30    31   ar
    30    31    32   ar
    31    26    27   ar
    32    14     9   ar
    33    19    15   ar
    34     8     3    1
    35    27    21   ar
    36    32    28   ar
@<TRIPOS>MOLECULE
*****
 32 36 0 0 0
SMALL
GASTEIGER

@<TRIPOS>ATOM
      1 O          63.3608   91.7176   11.8060 O.2     1  UNL1       -0.2699
      2 C          63.9027   90.8735   12.9213 C.2     1  UNL1        0.2506
      3 N          63.6718   89.3914   12.9205 N.am    1  UNL1       -0.2723
      4 C          64.2138   88.5473   14.0358 C.3     1  UNL1        0.1257
      5 C          63.9828   87.0652   14.0350 C.3     1  UNL1        0.1637
      6 O          63.2101   86.4271   12.9189 O.3     1  UNL1       -0.3502
      7 C          62.6682   87.2712   11.8036 C.3     1  UNL1        0.1622
      8 C          62.8990   88.7533   11.8044 C.3     1  UNL1        0.1096
      9 C          64.6755   91.5116   14.0375 C.ar    1  UNL1        0.0729
     10 C          64.2639   91.2823   15.4615 C.ar    1  UNL1        0.0061
     11 C          65.0366   91.9203   16.5776 C.ar    1  UNL1        0.0002
     12 C          66.2210   92.7877   16.2697 C.ar    1  UNL1        0.0016
     13 C          66.6326   93.0170   14.8456 C.ar    1  UNL1        0.0211
     14 C          65.8599   92.3790   13.7295 C.ar    1  UNL1        0.1072
     15 N          66.2715   92.6083   12.3054 N.ar    1  UNL1       -0.1477
     16 N          65.5950   93.5237   11.3286 N.ar    1  UNL1       -0.1447
     17 C          66.3373   93.4436   10.0276 C.ar    1  UNL1        0.1446
     18 C          67.4727   92.4787   10.2004 C.ar    1  UNL1        0.1446
     19 N          67.4320   91.9625   11.6082 N.ar    1  UNL1       -0.1447
     20 C          62.3571   89.5974   10.6891 C.3     1  UNL1        0.0488
     21 C          61.4811   88.9806    9.6393 C.ar    1  UNL1       -0.0167
     22 C          61.2405   87.5001    9.6383 C.ar    1  UNL1        0.0255
     23 C          60.3645   86.8833    8.5885 C.ar    1  UNL1        0.1414
     24 F          60.1238   85.4027    8.5875 F       1  UNL1       -0.2041
     25 C          59.7291   87.7471    7.5396 C.ar    1  UNL1        0.0505
     26 C          59.9698   89.2277    7.5405 C.ar    1  UNL1        0.1048
     27 C          60.8458   89.8444    8.5904 C.ar    1  UNL1        0.0168
     28 N          59.3345   90.0915    6.4916 N.ar    1  UNL1       -0.1477
     29 N          57.8622   90.2466    6.2503 N.ar    1  UNL1       -0.1447
     30 C          57.6776   91.2028    5.1094 C.ar    1  UNL1        0.1446
     31 C          59.0359   91.6386    4.6456 C.ar    1  UNL1        0.1446
     32 N          60.0599   90.9518    5.4998 N.ar    1  UNL1       -0.1447
@<TRIPOS>BOND
     1     1     2    2
     2     2     9    1
     3     9    10   ar
     4    10    11   ar
     5    11    12   ar
     6    12    13   ar
     7    13    14   ar
     8    14    15    1
     9    15    16   ar
    10    16    17   ar
    11    17    18   ar
    12    18    19   ar
    13     2     3   am
    14     3     4    1
    15     4     5    1
    16     5     6    1
    17     6     7    1
    18     7     8    1
    19     8    20    1
    20    20    21    1
    21    21    22   ar
    22    22    23   ar
    23    23    24    1
    24    23    25   ar
    25    25    26   ar
    26    26    28    1
    27    28    29   ar
    28    29    30   ar
    29    30    31   ar
    30    31    32   ar
    31    26    27   ar
    32    14     9   ar
    33    19    15   ar
    34     8     3    1
    35    27    21   ar
    36    32    28   ar
