@<TRIPOS>MOLECULE
*****
 25 27 0 0 0
SMALL
GASTEIGER

@<TRIPOS>ATOM
      1 C          64.0279   88.0787   13.8136 C.2     1  UNL1        0.3580
      2 N          63.1765   87.7232   12.6309 N.2     1  UNL1       -0.0039
      3 C          62.7136   88.7961   11.6905 C.2     1  UNL1        0.3159
      4 C          63.1019   90.2245   11.9328 C.3     1  UNL1        0.2333
      5 C          63.9533   90.5801   13.1154 C.2     1  UNL1        0.3644
      6 O          64.3417   92.0085   13.3577 O.2     1  UNL1       -0.2422
      7 N          64.4163   89.5071   14.0558 N.am    1  UNL1        0.0289
      8 N          61.8621   88.4406   10.5078 N.pl3   1  UNL1       -0.1888
      9 C          61.8647   87.0379    9.9764 C.3     1  UNL1        0.2343
     10 C          61.0133   86.6823    8.7937 C.3     1  UNL1        0.1929
     11 O          60.1594   87.7295    8.1424 O.3     1  UNL1       -0.3449
     12 C          60.1568   89.1323    8.6738 C.3     1  UNL1        0.1929
     13 C          61.0083   89.4878    9.8565 C.3     1  UNL1        0.2343
     14 C          64.4909   87.0057   14.7541 C.3     1  UNL1        0.2066
     15 O          65.4551   84.6088   14.4804 O.2     1  UNL1       -0.2741
     16 C          64.2995   85.5615   14.3969 C.2     1  UNL1        0.2387
     17 N          62.9525   85.0700   13.9563 N.am    1  UNL1       -0.2834
     18 H          62.1941   85.6953   13.9016 H       1  UNL1        0.1549
     19 C          62.7611   83.6258   13.5992 C.ar    1  UNL1        0.0508
     20 C          62.1901   82.6732   14.6074 C.ar    1  UNL1        0.0147
     21 C          61.9987   81.2290   14.2502 C.ar    1  UNL1        0.0018
     22 C          62.3784   80.7373   12.8848 C.ar    1  UNL1        0.0068
     23 C          62.9494   81.6900   11.8766 C.ar    1  UNL1        0.0358
     24 BR         63.3291   81.1984   10.5113 Br      1  UNL1       -0.0490
     25 C          63.1408   83.1342   12.2339 C.ar    1  UNL1        0.0214
@<TRIPOS>BOND
     1    15    16    2
     2    16    14    1
     3    14     1    1
     4     1     2    1
     5     2     3    2
     6     3     8    1
     7     8     9    1
     8     9    10    1
     9    10    11    1
    10    11    12    1
    11    12    13    1
    12     3     4    1
    13     4     5    1
    14     5     6    2
    15     5     7    1
    16    16    17   am
    17    17    19    1
    18    19    20   ar
    19    20    21   ar
    20    21    22   ar
    21    22    23   ar
    22    23    24    1
    23    23    25   ar
    24     7     1    2
    25    25    19   ar
    26    13     8    1
    27    17    18    1
@<TRIPOS>MOLECULE
*****
 25 27 0 0 0
SMALL
GASTEIGER

@<TRIPOS>ATOM
      1 C          63.9401   88.5464   13.6225 C.2     1  UNL1        0.3580
      2 N          64.7222   89.8210   13.7381 N.2     1  UNL1       -0.0039
      3 C          64.4777   90.9413   12.7710 C.2     1  UNL1        0.3159
      4 C          63.4511   90.7868   11.6884 C.3     1  UNL1        0.2333
      5 C          62.6689   89.5122   11.5727 C.2     1  UNL1        0.3644
      6 O          61.6423   89.3577   10.4901 O.2     1  UNL1       -0.2422
      7 N          62.9134   88.3919   12.5398 N.am    1  UNL1        0.0289
      8 N          65.2598   92.2160   12.8866 N.pl3   1  UNL1       -0.1888
      9 C          65.3913   93.1254   11.7010 C.3     1  UNL1        0.2343
     10 C          66.1734   94.4001   11.8165 C.3     1  UNL1        0.1929
     11 O          66.8241   94.7655   13.1178 O.3     1  UNL1       -0.3449
     12 C          66.6927   93.8561   14.3034 C.3     1  UNL1        0.1929
     13 C          65.9105   92.5814   14.1878 C.3     1  UNL1        0.2343
     14 C          64.1845   87.4260   14.5895 C.3     1  UNL1        0.2066
     15 O          65.1244   85.0052   14.6691 O.2     1  UNL1       -0.2741
     16 C          64.1529   86.0040   14.1134 C.2     1  UNL1        0.2387
     17 N          63.1498   85.5806   13.0816 N.am    1  UNL1       -0.2834
     18 H          62.5122   86.2361   12.7169 H       1  UNL1        0.1549
     19 C          63.1182   84.1585   12.6055 C.ar    1  UNL1        0.0508
     20 C          63.7271   83.7965   11.2833 C.ar    1  UNL1        0.0147
     21 C          63.6955   82.3745   10.8072 C.ar    1  UNL1        0.0018
     22 C          63.0549   81.3143   11.6534 C.ar    1  UNL1        0.0068
     23 C          62.4461   81.6763   12.9756 C.ar    1  UNL1        0.0358
     24 BR         61.8056   80.6162   13.8217 Br      1  UNL1       -0.0490
     25 C          62.4777   83.0984   13.4516 C.ar    1  UNL1        0.0214
@<TRIPOS>BOND
     1    15    16    2
     2    16    14    1
     3    14     1    1
     4     1     2    1
     5     2     3    2
     6     3     8    1
     7     8     9    1
     8     9    10    1
     9    10    11    1
    10    11    12    1
    11    12    13    1
    12     3     4    1
    13     4     5    1
    14     5     6    2
    15     5     7    1
    16    16    17   am
    17    17    19    1
    18    19    20   ar
    19    20    21   ar
    20    21    22   ar
    21    22    23   ar
    22    23    24    1
    23    23    25   ar
    24     7     1    2
    25    25    19   ar
    26    13     8    1
    27    17    18    1
@<TRIPOS>MOLECULE
*****
 25 27 0 0 0
SMALL
GASTEIGER

@<TRIPOS>ATOM
      1 C          64.1104   88.1827   14.0168 C.2     1  UNL1        0.3580
      2 N          64.8526   89.4770   14.1711 N.2     1  UNL1       -0.0039
      3 C          64.6251   90.5930   13.1950 C.2     1  UNL1        0.3159
      4 C          63.6554   90.4146   12.0646 C.3     1  UNL1        0.2333
      5 C          62.9132   89.1203   11.9102 C.2     1  UNL1        0.3644
      6 O          61.9435   88.9420   10.7798 O.2     1  UNL1       -0.2422
      7 N          63.1407   88.0044   12.8863 N.am    1  UNL1        0.0289
      8 N          65.3673   91.8874   13.3493 N.pl3   1  UNL1       -0.1888
      9 C          65.9803   92.2476   14.6701 C.3     1  UNL1        0.2343
     10 C          66.7224   93.5419   14.8245 C.3     1  UNL1        0.1929
     11 O          66.8516   94.4762   13.6580 O.3     1  UNL1       -0.3449
     12 C          66.2386   94.1160   12.3372 C.3     1  UNL1        0.1929
     13 C          65.4964   92.8216   12.1829 C.3     1  UNL1        0.2343
     14 C          64.3380   87.0667   14.9929 C.3     1  UNL1        0.2066
     15 O          65.4030   84.7417   14.5348 O.2     1  UNL1       -0.2741
     16 C          64.2026   85.6409   14.5469 C.2     1  UNL1        0.2387
     17 N          62.8667   85.1144   14.1130 N.am    1  UNL1       -0.2834
     18 H          62.0787   85.7047   14.1209 H       1  UNL1        0.1549
     19 C          62.7313   83.6887   13.6670 C.ar    1  UNL1        0.0508
     20 C          62.1874   82.6564   14.6096 C.ar    1  UNL1        0.0147
     21 C          62.0520   81.2307   14.1636 C.ar    1  UNL1        0.0018
     22 C          62.4605   80.8372   12.7749 C.ar    1  UNL1        0.0068
     23 C          63.0043   81.8695   11.8323 C.ar    1  UNL1        0.0358
     24 BR         63.4128   81.4761   10.4436 Br      1  UNL1       -0.0490
     25 C          63.1397   83.2953   12.2783 C.ar    1  UNL1        0.0214
@<TRIPOS>BOND
     1    15    16    2
     2    16    14    1
     3    14     1    1
     4     1     2    1
     5     2     3    2
     6     3     8    1
     7     8     9    1
     8     9    10    1
     9    10    11    1
    10    11    12    1
    11    12    13    1
    12     3     4    1
    13     4     5    1
    14     5     6    2
    15     5     7    1
    16    16    17   am
    17    17    19    1
    18    19    20   ar
    19    20    21   ar
    20    21    22   ar
    21    22    23   ar
    22    23    24    1
    23    23    25   ar
    24     7     1    2
    25    25    19   ar
    26    13     8    1
    27    17    18    1
@<TRIPOS>MOLECULE
*****
 25 27 0 0 0
SMALL
GASTEIGER

@<TRIPOS>ATOM
      1 C          64.4177   91.2478   13.0413 C.2     1  UNL1        0.3580
      2 N          64.8115   92.2380   11.9857 N.2     1  UNL1       -0.0039
      3 C          66.1536   92.9052   12.0465 C.2     1  UNL1        0.3159
      4 C          67.1018   92.5821   13.1630 C.3     1  UNL1        0.2333
      5 C          66.7080   91.5919   14.2186 C.2     1  UNL1        0.3644
      6 O          67.6562   91.2688   15.3350 O.2     1  UNL1       -0.2422
      7 N          65.3659   90.9248   14.1577 N.am    1  UNL1        0.0289
      8 N          66.5475   93.8955   10.9909 N.pl3   1  UNL1       -0.1888
      9 C          66.2378   95.3515   11.1755 C.3     1  UNL1        0.2343
     10 C          66.6316   96.3417   10.1200 C.3     1  UNL1        0.1929
     11 O          67.3352   95.8760    8.8797 O.3     1  UNL1       -0.3449
     12 C          67.6449   94.4200    8.6951 C.3     1  UNL1        0.1929
     13 C          67.2510   93.4297    9.7508 C.3     1  UNL1        0.2343
     14 C          63.0756   90.5806   12.9805 C.3     1  UNL1        0.2066
     15 O          63.1091   90.2949   10.3984 O.2     1  UNL1       -0.2741
     16 C          62.6708   89.8207   11.7522 C.2     1  UNL1        0.2387
     17 N          61.8276   88.5864   11.8779 N.am    1  UNL1       -0.2834
     18 H          61.5399   88.2751   12.7664 H       1  UNL1        0.1549
     19 C          61.4228   87.8265   10.6496 C.ar    1  UNL1        0.0508
     20 C          60.0615   88.0330   10.0546 C.ar    1  UNL1        0.0147
     21 C          59.6567   87.2730    8.8264 C.ar    1  UNL1        0.0018
     22 C          60.6132   86.3065    8.1932 C.ar    1  UNL1        0.0068
     23 C          61.9746   86.1000    8.7882 C.ar    1  UNL1        0.0358
     24 BR         62.9311   85.1335    8.1551 Br      1  UNL1       -0.0490
     25 C          62.3793   86.8600   10.0165 C.ar    1  UNL1        0.0214
@<TRIPOS>BOND
     1    15    16    2
     2    16    14    1
     3    14     1    1
     4     1     2    1
     5     2     3    2
     6     3     8    1
     7     8     9    1
     8     9    10    1
     9    10    11    1
    10    11    12    1
    11    12    13    1
    12     3     4    1
    13     4     5    1
    14     5     6    2
    15     5     7    1
    16    16    17   am
    17    17    19    1
    18    19    20   ar
    19    20    21   ar
    20    21    22   ar
    21    22    23   ar
    22    23    24    1
    23    23    25   ar
    24     7     1    2
    25    25    19   ar
    26    13     8    1
    27    17    18    1
@<TRIPOS>MOLECULE
*****
 25 27 0 0 0
SMALL
GASTEIGER

@<TRIPOS>ATOM
      1 C          63.1728   89.3352   12.2858 C.2     1  UNL1        0.3580
      2 N          62.2872   89.1536   11.0888 N.2     1  UNL1       -0.0039
      3 C          61.8483   87.7781   10.6824 C.2     1  UNL1        0.3159
      4 C          62.2950   86.5841   11.4730 C.3     1  UNL1        0.2333
      5 C          63.1806   86.7657   12.6699 C.2     1  UNL1        0.3644
      6 O          63.6272   85.5718   13.4604 O.2     1  UNL1       -0.2422
      7 N          63.6195   88.1413   13.0763 N.am    1  UNL1        0.0289
      8 N          60.9627   87.5965    9.4854 N.pl3   1  UNL1       -0.1888
      9 C          60.2468   88.7756    8.8963 C.3     1  UNL1        0.2343
     10 C          59.3612   88.5940    7.6993 C.3     1  UNL1        0.1929
     11 O          59.1914   87.2332    7.0915 O.3     1  UNL1       -0.3449
     12 C          59.9073   86.0540    7.6806 C.3     1  UNL1        0.1929
     13 C          60.7929   86.2357    8.8776 C.3     1  UNL1        0.2343
     14 C          63.6117   90.7108   12.6922 C.3     1  UNL1        0.2066
     15 O          63.7548   91.8756   10.3743 O.2     1  UNL1       -0.2741
     16 C          64.3508   91.5805   11.7188 C.2     1  UNL1        0.2387
     17 N          65.6858   92.1550   12.0900 N.am    1  UNL1       -0.2834
     18 H          66.0769   91.9613   12.9724 H       1  UNL1        0.1549
     19 C          66.4248   93.0246   11.1166 C.ar    1  UNL1        0.0508
     20 C          67.4040   92.4137   10.1584 C.ar    1  UNL1        0.0147
     21 C          68.1430   93.2833    9.1851 C.ar    1  UNL1        0.0018
     22 C          67.9029   94.7640    9.1698 C.ar    1  UNL1        0.0068
     23 C          66.9238   95.3749   10.1280 C.ar    1  UNL1        0.0358
     24 BR         66.6837   96.8555   10.1128 Br      1  UNL1       -0.0490
     25 C          66.1848   94.5052   11.1014 C.ar    1  UNL1        0.0214
@<TRIPOS>BOND
     1    15    16    2
     2    16    14    1
     3    14     1    1
     4     1     2    1
     5     2     3    2
     6     3     8    1
     7     8     9    1
     8     9    10    1
     9    10    11    1
    10    11    12    1
    11    12    13    1
    12     3     4    1
    13     4     5    1
    14     5     6    2
    15     5     7    1
    16    16    17   am
    17    17    19    1
    18    19    20   ar
    19    20    21   ar
    20    21    22   ar
    21    22    23   ar
    22    23    24    1
    23    23    25   ar
    24     7     1    2
    25    25    19   ar
    26    13     8    1
    27    17    18    1
@<TRIPOS>MOLECULE
*****
 25 27 0 0 0
SMALL
GASTEIGER

@<TRIPOS>ATOM
      1 C          61.9264   87.1849   10.5873 C.2     1  UNL1        0.3580
      2 N          62.2105   86.2811   11.7503 N.2     1  UNL1       -0.0039
      3 C          62.7623   84.9064   11.5145 C.2     1  UNL1        0.3159
      4 C          63.0299   84.4354   10.1158 C.3     1  UNL1        0.2333
      5 C          62.7459   85.3391    8.9528 C.2     1  UNL1        0.3644
      6 O          63.0136   84.8681    7.5541 O.2     1  UNL1       -0.2422
      7 N          62.1941   86.7138    9.1886 N.am    1  UNL1        0.0289
      8 N          63.0464   84.0026   12.6775 N.pl3   1  UNL1       -0.1888
      9 C          62.7557   82.5346   12.5750 C.3     1  UNL1        0.2343
     10 C          63.0398   81.6308   13.7379 C.3     1  UNL1        0.1929
     11 O          63.6145   82.1950   15.0035 O.3     1  UNL1       -0.3449
     12 C          63.9051   83.6630   15.1060 C.3     1  UNL1        0.1929
     13 C          63.6210   84.5668   13.9430 C.3     1  UNL1        0.2343
     14 C          61.3747   88.5597   10.8231 C.3     1  UNL1        0.2066
     15 O          61.9098   90.9958   11.5503 O.2     1  UNL1       -0.2741
     16 C          62.1049   89.5179   11.7166 C.2     1  UNL1        0.2387
     17 N          63.0305   88.9982   12.7765 N.am    1  UNL1       -0.2834
     18 H          63.1586   88.0282   12.8857 H       1  UNL1        0.1549
     19 C          63.7608   89.9564   13.6701 C.ar    1  UNL1        0.0508
     20 C          63.3680   90.0851   15.1121 C.ar    1  UNL1        0.0147
     21 C          64.0983   91.0433   16.0056 C.ar    1  UNL1        0.0018
     22 C          65.2214   91.8728   15.4572 C.ar    1  UNL1        0.0068
     23 C          65.6141   91.7441   14.0153 C.ar    1  UNL1        0.0358
     24 BR         66.7371   92.5736   13.4669 Br      1  UNL1       -0.0490
     25 C          64.8838   90.7858   13.1217 C.ar    1  UNL1        0.0214
@<TRIPOS>BOND
     1    15    16    2
     2    16    14    1
     3    14     1    1
     4     1     2    1
     5     2     3    2
     6     3     8    1
     7     8     9    1
     8     9    10    1
     9    10    11    1
    10    11    12    1
    11    12    13    1
    12     3     4    1
    13     4     5    1
    14     5     6    2
    15     5     7    1
    16    16    17   am
    17    17    19    1
    18    19    20   ar
    19    20    21   ar
    20    21    22   ar
    21    22    23   ar
    22    23    24    1
    23    23    25   ar
    24     7     1    2
    25    25    19   ar
    26    13     8    1
    27    17    18    1
@<TRIPOS>MOLECULE
*****
 25 27 0 0 0
SMALL
GASTEIGER

@<TRIPOS>ATOM
      1 C          63.8815   90.5881   13.1981 C.2     1  UNL1        0.3580
      2 N          64.9488   91.5078   12.6833 N.2     1  UNL1       -0.0039
      3 C          64.8656   92.0450   11.2854 C.2     1  UNL1        0.3159
      4 C          63.7151   91.6626   10.4021 C.3     1  UNL1        0.2333
      5 C          62.6478   90.7429   10.9169 C.2     1  UNL1        0.3644
      6 O          61.4973   90.3605   10.0336 O.2     1  UNL1       -0.2422
      7 N          62.7310   90.2057   12.3149 N.am    1  UNL1        0.0289
      8 N          65.9330   92.9647   10.7705 N.pl3   1  UNL1       -0.1888
      9 C          67.1399   92.4011   10.0808 C.3     1  UNL1        0.2343
     10 C          68.2073   93.3208    9.5660 C.3     1  UNL1        0.1929
     11 O          68.0677   94.8040    9.7409 O.3     1  UNL1       -0.3449
     12 C          66.8607   95.3676   10.4305 C.3     1  UNL1        0.1929
     13 C          65.7934   94.4479   10.9454 C.3     1  UNL1        0.2343
     14 C          63.9647   90.0508   14.5962 C.3     1  UNL1        0.2066
     15 O          63.4811   88.0795   16.2178 O.2     1  UNL1       -0.2741
     16 C          63.8174   88.5788   14.8439 C.2     1  UNL1        0.2387
     17 N          64.0065   87.6061   13.7178 N.am    1  UNL1       -0.2834
     18 H          64.2272   87.9338   12.8161 H       1  UNL1        0.1549
     19 C          63.8592   86.1341   13.9656 C.ar    1  UNL1        0.0508
     20 C          64.2231   85.5584   15.3021 C.ar    1  UNL1        0.0147
     21 C          64.0758   84.0864   15.5498 C.ar    1  UNL1        0.0018
     22 C          63.5647   83.1900   14.4611 C.ar    1  UNL1        0.0068
     23 C          63.2009   83.7656   13.1246 C.ar    1  UNL1        0.0358
     24 BR         62.6898   82.8693   12.0359 Br      1  UNL1       -0.0490
     25 C          63.3481   85.2378   12.8769 C.ar    1  UNL1        0.0214
@<TRIPOS>BOND
     1    15    16    2
     2    16    14    1
     3    14     1    1
     4     1     2    1
     5     2     3    2
     6     3     8    1
     7     8     9    1
     8     9    10    1
     9    10    11    1
    10    11    12    1
    11    12    13    1
    12     3     4    1
    13     4     5    1
    14     5     6    2
    15     5     7    1
    16    16    17   am
    17    17    19    1
    18    19    20   ar
    19    20    21   ar
    20    21    22   ar
    21    22    23   ar
    22    23    24    1
    23    23    25   ar
    24     7     1    2
    25    25    19   ar
    26    13     8    1
    27    17    18    1
@<TRIPOS>MOLECULE
*****
 25 27 0 0 0
SMALL
GASTEIGER

@<TRIPOS>ATOM
      1 C          62.8621   88.9953   11.9320 C.2     1  UNL1        0.3580
      2 N          63.6049   90.2431   11.5564 N.2     1  UNL1       -0.0039
      3 C          64.3810   90.9957   12.5963 C.2     1  UNL1        0.3159
      4 C          64.4141   90.5005   14.0118 C.3     1  UNL1        0.2333
      5 C          63.6712   89.2527   14.3874 C.2     1  UNL1        0.3644
      6 O          63.7044   88.7575   15.8029 O.2     1  UNL1       -0.2422
      7 N          62.8952   88.5001   13.3476 N.am    1  UNL1        0.0289
      8 N          65.1239   92.2435   12.2207 N.pl3   1  UNL1       -0.1888
      9 C          65.8340   93.0397   13.2751 C.3     1  UNL1        0.2343
     10 C          66.5769   94.2875   12.8996 C.3     1  UNL1        0.1929
     11 O          66.6097   94.7392   11.4695 O.3     1  UNL1       -0.3449
     12 C          65.8996   93.9430   10.4151 C.3     1  UNL1        0.1929
     13 C          65.1567   92.6951   10.7907 C.3     1  UNL1        0.2343
     14 C          62.0860   88.2427   10.8921 C.3     1  UNL1        0.2066
     15 O          61.0912   85.9923   10.0578 O.2     1  UNL1       -0.2741
     16 C          62.0788   86.7427   10.9012 C.2     1  UNL1        0.2387
     17 N          63.0593   85.9932   11.7539 N.am    1  UNL1       -0.2834
     18 H          63.7075   86.4857   12.3075 H       1  UNL1        0.1549
     19 C          63.0521   84.4932   11.7630 C.ar    1  UNL1        0.0508
     20 C          63.6348   83.7334   10.6084 C.ar    1  UNL1        0.0147
     21 C          63.6277   82.2335   10.6175 C.ar    1  UNL1        0.0018
     22 C          63.0378   81.4933   11.7812 C.ar    1  UNL1        0.0068
     23 C          62.4551   82.2531   12.9358 C.ar    1  UNL1        0.0358
     24 BR         61.8652   81.5131   14.0995 Br      1  UNL1       -0.0490
     25 C          62.4623   83.7531   12.9267 C.ar    1  UNL1        0.0214
@<TRIPOS>BOND
     1    15    16    2
     2    16    14    1
     3    14     1    1
     4     1     2    1
     5     2     3    2
     6     3     8    1
     7     8     9    1
     8     9    10    1
     9    10    11    1
    10    11    12    1
    11    12    13    1
    12     3     4    1
    13     4     5    1
    14     5     6    2
    15     5     7    1
    16    16    17   am
    17    17    19    1
    18    19    20   ar
    19    20    21   ar
    20    21    22   ar
    21    22    23   ar
    22    23    24    1
    23    23    25   ar
    24     7     1    2
    25    25    19   ar
    26    13     8    1
    27    17    18    1
@<TRIPOS>MOLECULE
*****
 25 27 0 0 0
SMALL
GASTEIGER

@<TRIPOS>ATOM
      1 C          63.0160   89.9398   11.8788 C.2     1  UNL1        0.3580
      2 N          63.9341   90.9010   11.1838 N.2     1  UNL1       -0.0039
      3 C          64.8681   91.7585   11.9851 C.2     1  UNL1        0.3159
      4 C          64.8841   91.6548   13.4815 C.3     1  UNL1        0.2333
      5 C          63.9660   90.6936   14.1765 C.2     1  UNL1        0.3644
      6 O          63.9819   90.5899   15.6728 O.2     1  UNL1       -0.2422
      7 N          63.0319   89.8361   13.3751 N.am    1  UNL1        0.0289
      8 N          65.7863   92.7198   11.2901 N.pl3   1  UNL1       -0.1888
      9 C          66.8034   92.2114   10.3119 C.3     1  UNL1        0.2343
     10 C          67.7215   93.1726    9.6169 C.3     1  UNL1        0.1929
     11 O          67.6226   94.6423    9.9002 O.3     1  UNL1       -0.3449
     12 C          66.6055   95.1508   10.8784 C.3     1  UNL1        0.1929
     13 C          65.6873   94.1895   11.5734 C.3     1  UNL1        0.2343
     14 C          62.0818   89.0822   11.0775 C.3     1  UNL1        0.2066
     15 O          60.9280   86.7841   10.7068 O.2     1  UNL1       -0.2741
     16 C          62.0197   87.6045   11.3274 C.2     1  UNL1        0.2387
     17 N          63.0494   86.9471   12.1979 N.am    1  UNL1       -0.2834
     18 H          63.7659   87.4855   12.6052 H       1  UNL1        0.1549
     19 C          62.9872   85.4694   12.4477 C.ar    1  UNL1        0.0508
     20 C          62.5685   84.9531   13.7924 C.ar    1  UNL1        0.0147
     21 C          62.5064   83.4754   14.0423 C.ar    1  UNL1        0.0018
     22 C          62.8630   82.5139   12.9475 C.ar    1  UNL1        0.0068
     23 C          63.2818   83.0302   11.6029 C.ar    1  UNL1        0.0358
     24 BR         63.6384   82.0689   10.5081 Br      1  UNL1       -0.0490
     25 C          63.3439   84.5080   11.3530 C.ar    1  UNL1        0.0214
@<TRIPOS>BOND
     1    15    16    2
     2    16    14    1
     3    14     1    1
     4     1     2    1
     5     2     3    2
     6     3     8    1
     7     8     9    1
     8     9    10    1
     9    10    11    1
    10    11    12    1
    11    12    13    1
    12     3     4    1
    13     4     5    1
    14     5     6    2
    15     5     7    1
    16    16    17   am
    17    17    19    1
    18    19    20   ar
    19    20    21   ar
    20    21    22   ar
    21    22    23   ar
    22    23    24    1
    23    23    25   ar
    24     7     1    2
    25    25    19   ar
    26    13     8    1
    27    17    18    1
