@<TRIPOS>MOLECULE
*****
 44 49 0 0 0
SMALL
GASTEIGER

@<TRIPOS>ATOM
      1 N          61.6207   94.0309   -0.3509 N.am    1  UNL1       -0.2222
      2 C          61.9679   93.4308    0.9793 C.2     1  UNL1        0.3219
      3 O          63.3307   93.4032    1.6054 O.2     1  UNL1       -0.2512
      4 N          60.7130   92.8630    1.5734 N.am    1  UNL1       -0.1907
      5 C          59.5903   93.1123    0.6105 C.2     1  UNL1        0.2529
      6 O          58.1580   92.7104    0.8029 O.2     1  UNL1       -0.2724
      7 C          60.1512   93.8341   -0.5789 C.3     1  UNL1        0.1391
      8 C          60.8516   94.5491   -1.6961 C.3     1  UNL1        0.0449
      9 C          60.0788   94.9956   -2.9016 C.3     1  UNL1        0.0746
     10 N          58.6056   94.7272   -2.9899 N.3     1  UNL1       -0.2676
     11 C          57.9053   94.0123   -1.8726 C.3     1  UNL1        0.0746
     12 C          58.6781   93.5657   -0.6671 C.3     1  UNL1        0.0449
     13 C          64.2091   94.5971   -3.3055 C.ar    1  UNL1        0.2293
     14 C          63.2544   93.9192   -2.3679 C.ar    1  UNL1        0.0924
     15 C          62.5754   94.7089   -1.2884 C.ar    1  UNL1        0.1453
     16 N          62.8510   96.1765   -1.1465 N.ar    1  UNL1       -0.2084
     17 C          63.8056   96.8545   -2.0840 C.ar    1  UNL1        0.2027
     18 N          64.4847   96.0647   -3.1636 N.ar    1  UNL1       -0.1892
     19 C          64.0872   92.8872   -5.2576 C.3     1  UNL1        0.2542
     20 O          64.8881   93.8075   -4.3849 O.3     1  UNL1       -0.4560
     21 C          60.6006   92.1681    2.8979 C.ar    1  UNL1        0.0622
     22 C          61.7774   91.4249    3.4572 C.ar    1  UNL1        0.0154
     23 C          61.6650   90.7299    4.7817 C.ar    1  UNL1        0.0013
     24 C          60.3758   90.7781    5.5470 C.ar    1  UNL1        0.0001
     25 C          59.1989   91.5213    4.9877 C.ar    1  UNL1        0.0013
     26 C          59.3114   92.2163    3.6632 C.ar    1  UNL1        0.0154
     27 C          60.2634   90.0831    6.8715 C.ar    1  UNL1       -0.0003
     28 C          59.3366   88.9142    7.0289 C.ar    1  UNL1        0.0000
     29 C          59.2242   88.2192    8.3534 C.ar    1  UNL1        0.0008
     30 C          60.0386   88.6932    9.5205 C.ar    1  UNL1        0.0100
     31 C          60.9653   89.8621    9.3631 C.ar    1  UNL1       -0.0207
     32 C          61.7797   90.3360   10.5303 C.3     1  UNL1        0.0311
     33 C          61.0778   90.5571    8.0387 C.ar    1  UNL1       -0.0042
     34 C          59.9262   87.9982   10.8451 C.2     1  UNL1        0.0726
     35 O          60.7551   86.7799   11.1256 O.co2   1  UNL1       -0.5446
     36 O          58.9848   88.5216   11.8891 O.co2   1  UNL1       -0.5446
     37 C          57.8328   95.1738   -4.1955 C.3     1  UNL1        0.1183
     38 C          57.4276   94.1752   -5.2388 C.ar    1  UNL1        0.0712
     39 N          56.1369   93.4243   -5.0971 N.ar    1  UNL1       -0.2471
     40 C          55.7317   92.4257   -6.1405 C.ar    1  UNL1        0.0985
     41 C          56.6172   92.1780   -7.3256 C.ar    1  UNL1        0.0203
     42 C          57.9079   92.9289   -7.4673 C.ar    1  UNL1       -0.0015
     43 C          58.3132   93.9275   -6.4240 C.ar    1  UNL1       -0.0069
     44 C          59.6039   94.6784   -6.5657 C.3     1  UNL1        0.0323
@<TRIPOS>UNITY_ATOM_ATTR
35 1
charge -1
@<TRIPOS>BOND
     1    19    20    1
     2    20    13    1
     3    13    14   ar
     4    14    15   ar
     5    15     1    1
     6     1     2   am
     7     2     3    2
     8     2     4   am
     9     4    21    1
    10    21    22   ar
    11    22    23   ar
    12    23    24   ar
    13    24    27    1
    14    27    28   ar
    15    28    29   ar
    16    29    30   ar
    17    30    34    1
    18    34    35   ar
    19    34    36   ar
    20    30    31   ar
    21    31    32    1
    22    31    33   ar
    23    24    25   ar
    24    25    26   ar
    25     4     5   am
    26     5     6    2
    27     5     7    1
    28     7     8    1
    29     8     9    1
    30     9    10    1
    31    10    37    1
    32    37    38    1
    33    38    39   ar
    34    39    40   ar
    35    40    41   ar
    36    41    42   ar
    37    42    43   ar
    38    43    44    1
    39    10    11    1
    40    11    12    1
    41    15    16   ar
    42    16    17   ar
    43    17    18   ar
    44    18    13   ar
    45     7     1    1
    46    43    38   ar
    47    26    21   ar
    48    12     7    1
    49    33    27   ar
@<TRIPOS>MOLECULE
*****
 44 49 0 0 0
SMALL
GASTEIGER

@<TRIPOS>ATOM
      1 N          59.3670   93.8819   -0.4253 N.am    1  UNL1       -0.2222
      2 C          58.9276   93.0430    0.7380 C.2     1  UNL1        0.3219
      3 O          57.5779   92.4115    0.9098 O.2     1  UNL1       -0.2512
      4 N          60.0750   92.9465    1.6995 N.am    1  UNL1       -0.1907
      5 C          61.2234   93.7258    1.1304 C.2     1  UNL1        0.2529
      6 O          62.5725   93.8969    1.7633 O.2     1  UNL1       -0.2724
      7 C          60.7859   94.3039   -0.1828 C.3     1  UNL1        0.1391
      8 C          60.2096   94.8127   -1.4708 C.3     1  UNL1        0.0449
      9 C          61.0444   95.6634   -2.3816 C.3     1  UNL1        0.0746
     10 N          62.4553   96.0052   -2.0043 N.3     1  UNL1       -0.2676
     11 C          63.0316   95.4963   -0.7163 C.3     1  UNL1        0.0746
     12 C          62.1968   94.6457    0.1944 C.3     1  UNL1        0.0449
     13 C          57.6087   93.6423   -3.9751 C.ar    1  UNL1        0.2293
     14 C          58.4419   93.2877   -2.7792 C.ar    1  UNL1        0.0924
     15 C          58.5338   94.2365   -1.6211 C.ar    1  UNL1        0.1453
     16 N          57.7924   95.5400   -1.6588 N.ar    1  UNL1       -0.2084
     17 C          56.9592   95.8946   -2.8546 C.ar    1  UNL1        0.2027
     18 N          56.8674   94.9457   -4.0128 N.ar    1  UNL1       -0.1892
     19 C          56.2561   92.6179   -5.9425 C.3     1  UNL1        0.2542
     20 O          57.5168   92.6935   -5.1332 O.3     1  UNL1       -0.4560
     21 C          60.0740   92.2016    3.0014 C.ar    1  UNL1        0.0622
     22 C          61.3341   91.5564    3.4972 C.ar    1  UNL1        0.0154
     23 C          61.3331   90.8115    4.7992 C.ar    1  UNL1        0.0013
     24 C          60.0721   90.7118    5.6053 C.ar    1  UNL1        0.0001
     25 C          58.8119   91.3570    5.1095 C.ar    1  UNL1        0.0013
     26 C          58.8130   92.1019    3.8075 C.ar    1  UNL1        0.0154
     27 C          60.0712   89.9668    6.9073 C.ar    1  UNL1       -0.0003
     28 C          59.2852   88.6966    7.0440 C.ar    1  UNL1        0.0000
     29 C          59.2843   87.9517    8.3460 C.ar    1  UNL1        0.0008
     30 C          60.0693   88.4771    9.5112 C.ar    1  UNL1        0.0100
     31 C          60.8553   89.7473    9.3745 C.ar    1  UNL1       -0.0207
     32 C          61.6403   90.2727   10.5397 C.3     1  UNL1        0.0311
     33 C          60.8562   90.4922    8.0726 C.ar    1  UNL1       -0.0042
     34 C          60.0684   87.7322   10.8132 C.2     1  UNL1        0.0726
     35 O          60.7823   86.4178   10.9258 O.co2   1  UNL1       -0.5446
     36 O          59.3534   88.3017   12.0026 O.co2   1  UNL1       -0.5446
     37 C          63.2901   96.8559   -2.9151 C.3     1  UNL1        0.1183
     38 C          63.6331   96.3682   -4.2915 C.ar    1  UNL1        0.0712
     39 N          62.5490   95.8806   -5.2063 N.ar    1  UNL1       -0.2471
     40 C          62.8921   95.3929   -6.5827 C.ar    1  UNL1        0.0985
     41 C          64.3193   95.3927   -7.0443 C.ar    1  UNL1        0.0203
     42 C          65.4034   95.8803   -6.1295 C.ar    1  UNL1       -0.0015
     43 C          65.0604   96.3680   -4.7531 C.ar    1  UNL1       -0.0069
     44 C          66.1446   96.8556   -3.8383 C.3     1  UNL1        0.0323
@<TRIPOS>UNITY_ATOM_ATTR
35 1
charge -1
@<TRIPOS>BOND
     1    19    20    1
     2    20    13    1
     3    13    14   ar
     4    14    15   ar
     5    15     1    1
     6     1     2   am
     7     2     3    2
     8     2     4   am
     9     4    21    1
    10    21    22   ar
    11    22    23   ar
    12    23    24   ar
    13    24    27    1
    14    27    28   ar
    15    28    29   ar
    16    29    30   ar
    17    30    34    1
    18    34    35   ar
    19    34    36   ar
    20    30    31   ar
    21    31    32    1
    22    31    33   ar
    23    24    25   ar
    24    25    26   ar
    25     4     5   am
    26     5     6    2
    27     5     7    1
    28     7     8    1
    29     8     9    1
    30     9    10    1
    31    10    37    1
    32    37    38    1
    33    38    39   ar
    34    39    40   ar
    35    40    41   ar
    36    41    42   ar
    37    42    43   ar
    38    43    44    1
    39    10    11    1
    40    11    12    1
    41    15    16   ar
    42    16    17   ar
    43    17    18   ar
    44    18    13   ar
    45     7     1    1
    46    43    38   ar
    47    26    21   ar
    48    12     7    1
    49    33    27   ar
@<TRIPOS>MOLECULE
*****
 44 49 0 0 0
SMALL
GASTEIGER

@<TRIPOS>ATOM
      1 N          59.3475   93.8672   -0.4795 N.am    1  UNL1       -0.2222
      2 C          58.9183   93.0320    0.6903 C.2     1  UNL1        0.3219
      3 O          57.5732   92.3933    0.8715 O.2     1  UNL1       -0.2512
      4 N          60.0704   92.9476    1.6472 N.am    1  UNL1       -0.1907
      5 C          61.2116   93.7306    1.0688 C.2     1  UNL1        0.2529
      6 O          62.5624   93.9132    1.6947 O.2     1  UNL1       -0.2724
      7 C          60.7648   94.2990   -0.2456 C.3     1  UNL1        0.1391
      8 C          60.1799   94.7974   -1.5337 C.3     1  UNL1        0.0449
      9 C          61.0055   95.6481   -2.4527 C.3     1  UNL1        0.0746
     10 N          62.4160   96.0004   -2.0836 N.3     1  UNL1       -0.2676
     11 C          63.0010   95.5019   -0.7955 C.3     1  UNL1        0.0746
     12 C          62.1754   94.6512    0.1235 C.3     1  UNL1        0.0449
     13 C          56.6881   95.6883   -2.7948 C.ar    1  UNL1        0.2293
     14 C          57.5287   95.3451   -1.6008 C.ar    1  UNL1        0.0924
     15 C          58.5069   94.2103   -1.6735 C.ar    1  UNL1        0.1453
     16 N          58.6445   93.4186   -2.9401 N.ar    1  UNL1       -0.2084
     17 C          57.8039   93.7617   -4.1341 C.ar    1  UNL1        0.2027
     18 N          56.8257   94.8966   -4.0614 N.ar    1  UNL1       -0.1892
     19 C          54.6788   96.8559   -1.6333 C.3     1  UNL1        0.2542
     20 O          55.7099   96.8231   -2.7223 O.3     1  UNL1       -0.4560
     21 C          60.0797   92.2098    2.9531 C.ar    1  UNL1        0.0622
     22 C          58.8288   92.1272    3.7767 C.ar    1  UNL1        0.0154
     23 C          58.8381   91.3893    5.0827 C.ar    1  UNL1        0.0013
     24 C          60.0983   90.7341    5.5650 C.ar    1  UNL1        0.0001
     25 C          61.3493   90.8166    4.7413 C.ar    1  UNL1        0.0013
     26 C          61.3399   91.5545    3.4353 C.ar    1  UNL1        0.0154
     27 C          60.1076   89.9962    6.8709 C.ar    1  UNL1       -0.0003
     28 C          59.1655   88.8500    7.0915 C.ar    1  UNL1        0.0000
     29 C          59.1748   88.1122    8.3975 C.ar    1  UNL1        0.0008
     30 C          60.1262   88.5206    9.4828 C.ar    1  UNL1        0.0100
     31 C          61.0684   89.6668    9.2622 C.ar    1  UNL1       -0.0207
     32 C          62.0198   90.0751   10.3476 C.3     1  UNL1        0.0311
     33 C          61.0591   90.4046    7.9564 C.ar    1  UNL1       -0.0042
     34 C          60.1355   87.7827   10.7888 C.2     1  UNL1        0.0726
     35 O          59.4004   88.3412   11.9710 O.co2   1  UNL1       -0.5446
     36 O          60.8801   86.4864   10.9125 O.co2   1  UNL1       -0.5446
     37 C          63.2416   96.8511   -3.0027 C.3     1  UNL1        0.1183
     38 C          63.7253   96.2934   -4.3085 C.ar    1  UNL1        0.0712
     39 N          65.1131   95.7347   -4.4173 N.ar    1  UNL1       -0.2471
     40 C          65.5968   95.1770   -5.7231 C.ar    1  UNL1        0.0985
     41 C          64.6928   95.1781   -6.9200 C.ar    1  UNL1        0.0203
     42 C          63.3050   95.7368   -6.8112 C.ar    1  UNL1       -0.0015
     43 C          62.8212   96.2945   -5.5055 C.ar    1  UNL1       -0.0069
     44 C          61.4334   96.8532   -5.3966 C.3     1  UNL1        0.0323
@<TRIPOS>UNITY_ATOM_ATTR
35 1
charge -1
@<TRIPOS>BOND
     1    19    20    1
     2    20    13    1
     3    13    14   ar
     4    14    15   ar
     5    15     1    1
     6     1     2   am
     7     2     3    2
     8     2     4   am
     9     4    21    1
    10    21    22   ar
    11    22    23   ar
    12    23    24   ar
    13    24    27    1
    14    27    28   ar
    15    28    29   ar
    16    29    30   ar
    17    30    34    1
    18    34    35   ar
    19    34    36   ar
    20    30    31   ar
    21    31    32    1
    22    31    33   ar
    23    24    25   ar
    24    25    26   ar
    25     4     5   am
    26     5     6    2
    27     5     7    1
    28     7     8    1
    29     8     9    1
    30     9    10    1
    31    10    37    1
    32    37    38    1
    33    38    39   ar
    34    39    40   ar
    35    40    41   ar
    36    41    42   ar
    37    42    43   ar
    38    43    44    1
    39    10    11    1
    40    11    12    1
    41    15    16   ar
    42    16    17   ar
    43    17    18   ar
    44    18    13   ar
    45     7     1    1
    46    43    38   ar
    47    26    21   ar
    48    12     7    1
    49    33    27   ar
