@<TRIPOS>MOLECULE
*****
 30 32 0 0 0
SMALL
GASTEIGER

@<TRIPOS>ATOM
      1 C          60.3842   86.3922    7.9239 C.2     1  UNL1        0.2296
      2 O          60.5462   85.2712    6.9405 O.2     1  UNL1       -0.2745
      3 N          61.4829   86.7006    8.8973 N.am    1  UNL1       -0.2543
      4 C          61.3208   87.8217    9.8808 C.ar    1  UNL1        0.0565
      5 C          60.0711   87.9223   10.7041 C.ar    1  UNL1        0.0445
      6 C          59.9090   89.0433   11.6874 C.ar    1  UNL1        0.1415
      7 F          58.6592   89.1440   12.5108 F       1  UNL1       -0.2041
      8 C          60.9968   90.0637   11.8475 C.ar    1  UNL1        0.0328
      9 C          62.2465   89.9631   11.0241 C.ar    1  UNL1        0.0406
     10 C          62.4086   88.8421   10.0408 C.ar    1  UNL1        0.0181
     11 C          63.3343   90.9835   11.1842 C.ar    1  UNL1        0.1807
     12 N          64.1280   91.2379   12.4313 N.ar    1  UNL1       -0.1083
     13 N          65.1035   92.3403   12.1431 N.ar    1  UNL1       -0.0229
     14 N          64.9128   92.7672   10.7178 N.ar    1  UNL1       -0.0464
     15 N          63.8193   91.9286   10.1252 N.ar    1  UNL1       -0.2388
     16 H          63.4796   91.9882    9.2031 H       1  UNL1        0.1923
     17 C          59.0868   88.5410    7.2531 C.3     1  UNL1        0.0101
     18 C          59.1233   87.2048    7.9338 C.3     1  UNL1        0.0856
     19 C          62.7437   85.8881    8.8874 C.3     1  UNL1        0.1247
     20 C          62.9555   84.8195    9.9187 C.ar    1  UNL1       -0.0018
     21 C          63.7497   83.5939    9.5766 C.ar    1  UNL1        0.0005
     22 C          63.9614   82.5255   10.6078 C.ar    1  UNL1        0.0369
     23 C          63.3790   82.6826   11.9812 C.ar    1  UNL1        0.1468
     24 C          62.5848   83.9082   12.3232 C.ar    1  UNL1        0.0369
     25 C          62.3730   84.9767   11.2920 C.ar    1  UNL1        0.0005
     26 O          63.5907   81.6140   13.0124 O.3     1  UNL1       -0.4045
     27 C          62.4613   80.7024   13.3907 C.3     1  UNL1        0.5753
     28 F          61.3317   79.7907   13.7690 F       1  UNL1       -0.1328
     29 F          62.7207   79.8735   12.1678 F       1  UNL1       -0.1328
     30 F          62.2018   81.5313   14.6136 F       1  UNL1       -0.1328
@<TRIPOS>BOND
     1    17    18    1
     2    18     1    1
     3     1     2    2
     4     1     3   am
     5     3    19    1
     6    19    20    1
     7    20    21   ar
     8    21    22   ar
     9    22    23   ar
    10    23    26    1
    11    26    27    1
    12    27    28    1
    13    27    29    1
    14    27    30    1
    15    23    24   ar
    16    24    25   ar
    17     3     4    1
    18     4     5   ar
    19     5     6   ar
    20     6     7    1
    21     6     8   ar
    22     8     9   ar
    23     9    11    1
    24    11    12   ar
    25    12    13   ar
    26    13    14   ar
    27    14    15   ar
    28     9    10   ar
    29    25    20   ar
    30    10     4   ar
    31    15    11   ar
    32    15    16    1
@<TRIPOS>MOLECULE
*****
 30 32 0 0 0
SMALL
GASTEIGER

@<TRIPOS>ATOM
      1 C          60.3028   89.1098    9.7798 C.2     1  UNL1        0.2296
      2 O          59.7304   90.4885    9.9251 O.2     1  UNL1       -0.2745
      3 N          61.3047   88.6049   10.7755 N.am    1  UNL1       -0.2543
      4 C          61.8772   87.2260   10.6301 C.ar    1  UNL1        0.0565
      5 C          62.2625   86.7130    9.2743 C.ar    1  UNL1        0.0445
      6 C          62.8350   85.3342    9.1290 C.ar    1  UNL1        0.1415
      7 F          63.2203   84.8211    7.7731 F       1  UNL1       -0.2041
      8 C          63.0221   84.4684   10.3395 C.ar    1  UNL1        0.0328
      9 C          62.6368   84.9814   11.6953 C.ar    1  UNL1        0.0406
     10 C          62.0644   86.3602   11.8406 C.ar    1  UNL1        0.0181
     11 C          62.8240   84.1156   12.9059 C.ar    1  UNL1        0.1807
     12 N          62.4098   84.4570   14.3066 N.ar    1  UNL1       -0.1083
     13 N          62.7880   83.3088   15.1946 N.ar    1  UNL1       -0.0229
     14 N          63.4359   82.2578   14.3428 N.ar    1  UNL1       -0.0464
     15 N          63.4581   82.7564   12.9282 N.ar    1  UNL1       -0.2388
     16 H          63.8245   82.2760   12.1510 H       1  UNL1        0.1923
     17 C          59.4393   88.8538    7.3428 C.3     1  UNL1        0.0101
     18 C          59.8735   88.2358    8.6388 C.3     1  UNL1        0.0856
     19 C          61.7341   89.4788   11.9164 C.3     1  UNL1        0.1247
     20 C          62.8872   90.4228   11.7454 C.ar    1  UNL1       -0.0018
     21 C          63.7691   90.7491   12.9141 C.ar    1  UNL1        0.0005
     22 C          64.9221   91.6931   12.7431 C.ar    1  UNL1        0.0369
     23 C          65.1933   92.3108   11.4033 C.ar    1  UNL1        0.1468
     24 C          64.3115   91.9846   10.2347 C.ar    1  UNL1        0.0369
     25 C          63.1584   91.0406   10.4057 C.ar    1  UNL1        0.0005
     26 O          66.3464   93.2549   11.2323 O.3     1  UNL1       -0.4045
     27 C          67.2420   93.1358   10.0350 C.3     1  UNL1        0.5753
     28 F          68.1377   93.0167    8.8376 F       1  UNL1       -0.1328
     29 F          66.5178   94.2743    9.3800 F       1  UNL1       -0.1328
     30 F          67.9663   91.9972   10.6900 F       1  UNL1       -0.1328
@<TRIPOS>BOND
     1    17    18    1
     2    18     1    1
     3     1     2    2
     4     1     3   am
     5     3    19    1
     6    19    20    1
     7    20    21   ar
     8    21    22   ar
     9    22    23   ar
    10    23    26    1
    11    26    27    1
    12    27    28    1
    13    27    29    1
    14    27    30    1
    15    23    24   ar
    16    24    25   ar
    17     3     4    1
    18     4     5   ar
    19     5     6   ar
    20     6     7    1
    21     6     8   ar
    22     8     9   ar
    23     9    11    1
    24    11    12   ar
    25    12    13   ar
    26    13    14   ar
    27    14    15   ar
    28     9    10   ar
    29    25    20   ar
    30    10     4   ar
    31    15    11   ar
    32    15    16    1
@<TRIPOS>MOLECULE
*****
 30 32 0 0 0
SMALL
GASTEIGER

@<TRIPOS>ATOM
      1 C          60.1118   88.1587   10.0597 C.2     1  UNL1        0.2296
      2 O          59.3429   87.1069    9.3165 O.2     1  UNL1       -0.2745
      3 N          61.6108   88.1117   10.0891 N.am    1  UNL1       -0.2543
      4 C          62.3797   89.1636   10.8324 C.ar    1  UNL1        0.0565
      5 C          63.0658   90.2642   10.0788 C.ar    1  UNL1        0.0445
      6 C          63.8346   91.3160   10.8221 C.ar    1  UNL1        0.1415
      7 F          64.5208   92.4166   10.0685 F       1  UNL1       -0.2041
      8 C          63.9173   91.2672   12.3190 C.ar    1  UNL1        0.0328
      9 C          63.2312   90.1667   13.0726 C.ar    1  UNL1        0.0406
     10 C          62.4624   89.1149   12.3293 C.ar    1  UNL1        0.0181
     11 C          63.3140   90.1179   14.5696 C.ar    1  UNL1        0.1807
     12 N          63.5367   91.2898   15.4789 N.ar    1  UNL1       -0.1083
     13 N          63.5489   90.7849   16.8913 N.ar    1  UNL1       -0.0229
     14 N          63.3336   89.3009   16.8549 N.ar    1  UNL1       -0.0464
     15 N          63.1884   88.8887   15.4200 N.ar    1  UNL1       -0.2388
     16 H          63.0373   87.9722   15.0936 H       1  UNL1        0.1923
     17 C          58.9624   89.0747   12.2022 C.3     1  UNL1        0.0101
     18 C          59.3817   89.2576   10.7736 C.3     1  UNL1        0.0856
     19 C          62.3408   87.0130    9.3753 C.3     1  UNL1        0.1247
     20 C          62.7170   85.7610   10.1110 C.ar    1  UNL1       -0.0018
     21 C          63.4593   84.6681    9.4008 C.ar    1  UNL1        0.0005
     22 C          63.8353   83.4162   10.1365 C.ar    1  UNL1        0.0369
     23 C          63.4691   83.2572   11.5824 C.ar    1  UNL1        0.1468
     24 C          62.7268   84.3502   12.2926 C.ar    1  UNL1        0.0369
     25 C          62.3507   85.6021   11.5569 C.ar    1  UNL1        0.0005
     26 O          63.8452   82.0053   12.3181 O.3     1  UNL1       -0.4045
     27 C          62.7759   81.0889   12.8346 C.3     1  UNL1        0.5753
     28 F          61.7065   80.1725   13.3511 F       1  UNL1       -0.1328
     29 F          62.6210   80.4976   11.4648 F       1  UNL1       -0.1328
     30 F          62.9308   81.6803   14.2044 F       1  UNL1       -0.1328
@<TRIPOS>BOND
     1    17    18    1
     2    18     1    1
     3     1     2    2
     4     1     3   am
     5     3    19    1
     6    19    20    1
     7    20    21   ar
     8    21    22   ar
     9    22    23   ar
    10    23    26    1
    11    26    27    1
    12    27    28    1
    13    27    29    1
    14    27    30    1
    15    23    24   ar
    16    24    25   ar
    17     3     4    1
    18     4     5   ar
    19     5     6   ar
    20     6     7    1
    21     6     8   ar
    22     8     9   ar
    23     9    11    1
    24    11    12   ar
    25    12    13   ar
    26    13    14   ar
    27    14    15   ar
    28     9    10   ar
    29    25    20   ar
    30    10     4   ar
    31    15    11   ar
    32    15    16    1
@<TRIPOS>MOLECULE
*****
 30 32 0 0 0
SMALL
GASTEIGER

@<TRIPOS>ATOM
      1 C          60.3505   89.6451   11.1253 C.2     1  UNL1        0.2296
      2 O          59.9649   91.0935   11.1829 O.2     1  UNL1       -0.2745
      3 N          61.6858   89.2459   10.5705 N.am    1  UNL1       -0.2543
      4 C          62.0714   87.7974   10.5129 C.ar    1  UNL1        0.0565
      5 C          62.1209   87.0864    9.1931 C.ar    1  UNL1        0.0445
      6 C          62.5065   85.6380    9.1355 C.ar    1  UNL1        0.1415
      7 F          62.5559   84.9269    7.8157 F       1  UNL1       -0.2041
      8 C          62.8427   84.9006   10.3978 C.ar    1  UNL1        0.0328
      9 C          62.7932   85.6117   11.7176 C.ar    1  UNL1        0.0406
     10 C          62.4076   87.0601   11.7752 C.ar    1  UNL1        0.0181
     11 C          63.1294   84.8743   12.9798 C.ar    1  UNL1        0.1807
     12 N          62.3177   84.8698   14.2412 N.ar    1  UNL1       -0.1083
     13 N          63.0229   84.0047   15.2433 N.ar    1  UNL1       -0.0229
     14 N          64.2706   83.4744   14.6012 N.ar    1  UNL1       -0.0464
     15 N          64.3363   84.0119   13.2024 N.ar    1  UNL1       -0.2388
     16 H          65.0469   83.8304   12.5456 H       1  UNL1        0.1923
     17 C          58.4705   88.9036   12.7580 C.3     1  UNL1        0.0101
     18 C          59.4009   88.5957   11.6225 C.3     1  UNL1        0.0856
     19 C          62.6354   90.2952   10.0734 C.3     1  UNL1        0.1247
     20 C          63.5662   90.9786   11.0309 C.ar    1  UNL1       -0.0018
     21 C          64.4758   92.0676   10.5443 C.ar    1  UNL1        0.0005
     22 C          65.4065   92.7510   11.5017 C.ar    1  UNL1        0.0369
     23 C          65.4277   92.3454   12.9457 C.ar    1  UNL1        0.1468
     24 C          64.5181   91.2564   13.4322 C.ar    1  UNL1        0.0369
     25 C          63.5874   90.5730   12.4748 C.ar    1  UNL1        0.0005
     26 O          66.3585   93.0288   13.9032 O.3     1  UNL1       -0.4045
     27 C          67.2206   92.2143   14.8214 C.3     1  UNL1        0.5753
     28 F          68.0828   91.3998   15.7398 F       1  UNL1       -0.1328
     29 F          66.5531   92.8450   16.0075 F       1  UNL1       -0.1328
     30 F          67.8881   91.5836   13.6354 F       1  UNL1       -0.1328
@<TRIPOS>BOND
     1    17    18    1
     2    18     1    1
     3     1     2    2
     4     1     3   am
     5     3    19    1
     6    19    20    1
     7    20    21   ar
     8    21    22   ar
     9    22    23   ar
    10    23    26    1
    11    26    27    1
    12    27    28    1
    13    27    29    1
    14    27    30    1
    15    23    24   ar
    16    24    25   ar
    17     3     4    1
    18     4     5   ar
    19     5     6   ar
    20     6     7    1
    21     6     8   ar
    22     8     9   ar
    23     9    11    1
    24    11    12   ar
    25    12    13   ar
    26    13    14   ar
    27    14    15   ar
    28     9    10   ar
    29    25    20   ar
    30    10     4   ar
    31    15    11   ar
    32    15    16    1
@<TRIPOS>MOLECULE
*****
 30 32 0 0 0
SMALL
GASTEIGER

@<TRIPOS>ATOM
      1 C          60.6379   86.8883    8.5407 C.2     1  UNL1        0.2296
      2 O          60.2592   85.7204    7.6789 O.2     1  UNL1       -0.2745
      3 N          61.9929   86.9387    9.1823 N.am    1  UNL1       -0.2543
      4 C          62.3716   88.1066   10.0441 C.ar    1  UNL1        0.0565
      5 C          62.5655   89.4609    9.4291 C.ar    1  UNL1        0.0445
      6 C          62.9442   90.6287   10.2909 C.ar    1  UNL1        0.1415
      7 F          63.1381   91.9830    9.6759 F       1  UNL1       -0.2041
      8 C          63.1290   90.4422   11.7677 C.ar    1  UNL1        0.0328
      9 C          62.9352   89.0879   12.3828 C.ar    1  UNL1        0.0406
     10 C          62.5564   87.9201   11.5210 C.ar    1  UNL1        0.0181
     11 C          63.1200   88.9015   13.8596 C.ar    1  UNL1        0.1807
     12 N          62.6402   89.8331   14.9328 N.ar    1  UNL1       -0.1083
     13 N          63.0407   89.2581   16.2591 N.ar    1  UNL1       -0.0229
     14 N          63.7682   87.9710   16.0055 N.ar    1  UNL1       -0.0464
     15 N          63.8171   87.7506   14.5226 N.ar    1  UNL1       -0.2388
     16 H          64.2337   86.9850   14.0648 H       1  UNL1        0.1923
     17 C          59.3627   88.9698    7.6513 C.3     1  UNL1        0.0101
     18 C          59.6618   88.0057    8.7609 C.3     1  UNL1        0.0856
     19 C          62.9690   85.8213    8.9622 C.3     1  UNL1        0.1247
     20 C          63.0977   84.7265    9.9795 C.ar    1  UNL1       -0.0018
     21 C          63.9410   83.5220    9.6825 C.ar    1  UNL1        0.0005
     22 C          64.0696   82.4273   10.6998 C.ar    1  UNL1        0.0369
     23 C          63.3550   82.5370   12.0141 C.ar    1  UNL1        0.1468
     24 C          62.5118   83.7414   12.3111 C.ar    1  UNL1        0.0369
     25 C          62.3831   84.8361   11.2938 C.ar    1  UNL1        0.0005
     26 O          63.4837   81.4421   13.0314 O.3     1  UNL1       -0.4045
     27 C          62.2955   80.5933   13.3741 C.3     1  UNL1        0.5753
     28 F          61.1071   79.7445   13.7169 F       1  UNL1       -0.1328
     29 F          62.5908   79.7063   12.2012 F       1  UNL1       -0.1328
     30 F          62.0001   81.4804   14.5471 F       1  UNL1       -0.1328
@<TRIPOS>BOND
     1    17    18    1
     2    18     1    1
     3     1     2    2
     4     1     3   am
     5     3    19    1
     6    19    20    1
     7    20    21   ar
     8    21    22   ar
     9    22    23   ar
    10    23    26    1
    11    26    27    1
    12    27    28    1
    13    27    29    1
    14    27    30    1
    15    23    24   ar
    16    24    25   ar
    17     3     4    1
    18     4     5   ar
    19     5     6   ar
    20     6     7    1
    21     6     8   ar
    22     8     9   ar
    23     9    11    1
    24    11    12   ar
    25    12    13   ar
    26    13    14   ar
    27    14    15   ar
    28     9    10   ar
    29    25    20   ar
    30    10     4   ar
    31    15    11   ar
    32    15    16    1
@<TRIPOS>MOLECULE
*****
 30 32 0 0 0
SMALL
GASTEIGER

@<TRIPOS>ATOM
      1 C          62.9827   90.4794   13.0413 C.2     1  UNL1        0.2296
      2 O          61.7476   89.6305   13.1023 O.2     1  UNL1       -0.2745
      3 N          63.8583   90.6177   14.2513 N.am    1  UNL1       -0.2543
      4 C          65.0934   91.4667   14.1903 C.ar    1  UNL1        0.0565
      5 C          65.7336   91.9515   15.4571 C.ar    1  UNL1        0.0445
      6 C          66.9687   92.8005   15.3960 C.ar    1  UNL1        0.1415
      7 F          67.6090   93.2854   16.6629 F       1  UNL1       -0.2041
      8 C          67.5636   93.1646   14.0680 C.ar    1  UNL1        0.0328
      9 C          66.9234   92.6798   12.8012 C.ar    1  UNL1        0.0406
     10 C          65.6883   91.8308   12.8623 C.ar    1  UNL1        0.0181
     11 C          67.5183   93.0439   11.4732 C.ar    1  UNL1        0.1807
     12 N          67.2514   94.3031   10.7030 N.ar    1  UNL1       -0.1083
     13 N          68.0527   94.2502    9.4360 N.ar    1  UNL1       -0.0229
     14 N          68.8147   92.9583    9.4232 N.ar    1  UNL1       -0.0464
     15 N          68.4844   92.2128   10.6822 N.ar    1  UNL1       -0.2388
     16 H          68.8395   91.3325   10.9435 H       1  UNL1        0.1923
     17 C          62.7672   90.7281   10.4641 C.3     1  UNL1        0.0101
     18 C          63.3423   91.1901   11.7701 C.3     1  UNL1        0.0856
     19 C          63.4987   89.9071   15.5224 C.3     1  UNL1        0.1247
     20 C          63.5875   88.4115   15.5965 C.ar    1  UNL1       -0.0018
     21 C          63.0389   87.6858   16.7891 C.ar    1  UNL1        0.0005
     22 C          63.1277   86.1903   16.8631 C.ar    1  UNL1        0.0369
     23 C          63.7651   85.4205   15.7445 C.ar    1  UNL1        0.1468
     24 C          64.3137   86.1462   14.5520 C.ar    1  UNL1        0.0369
     25 C          64.2249   87.6417   14.4779 C.ar    1  UNL1        0.0005
     26 O          63.8539   83.9249   15.8186 O.3     1  UNL1       -0.4045
     27 C          63.0023   83.0776   14.9205 C.3     1  UNL1        0.5753
     28 F          62.1506   82.2303   14.0222 F       1  UNL1       -0.1328
     29 F          64.2004   82.2467   14.5683 F       1  UNL1       -0.1328
     30 F          61.8042   83.9086   15.2726 F       1  UNL1       -0.1328
@<TRIPOS>BOND
     1    17    18    1
     2    18     1    1
     3     1     2    2
     4     1     3   am
     5     3    19    1
     6    19    20    1
     7    20    21   ar
     8    21    22   ar
     9    22    23   ar
    10    23    26    1
    11    26    27    1
    12    27    28    1
    13    27    29    1
    14    27    30    1
    15    23    24   ar
    16    24    25   ar
    17     3     4    1
    18     4     5   ar
    19     5     6   ar
    20     6     7    1
    21     6     8   ar
    22     8     9   ar
    23     9    11    1
    24    11    12   ar
    25    12    13   ar
    26    13    14   ar
    27    14    15   ar
    28     9    10   ar
    29    25    20   ar
    30    10     4   ar
    31    15    11   ar
    32    15    16    1
@<TRIPOS>MOLECULE
*****
 30 32 0 0 0
SMALL
GASTEIGER

@<TRIPOS>ATOM
      1 C          60.3452   88.8335   10.9722 C.2     1  UNL1        0.2296
      2 O          59.3709   88.1606   10.0514 O.2     1  UNL1       -0.2745
      3 N          61.8144   88.5628   10.8373 N.am    1  UNL1       -0.2543
      4 C          62.7887   89.2358   11.7582 C.ar    1  UNL1        0.0565
      5 C          63.0959   88.6317   13.0963 C.ar    1  UNL1        0.0445
      6 C          64.0702   89.3046   14.0171 C.ar    1  UNL1        0.1415
      7 F          64.3775   88.7005   15.3553 F       1  UNL1       -0.2041
      8 C          64.7372   90.5817   13.5997 C.ar    1  UNL1        0.0328
      9 C          64.4300   91.1858   12.2616 C.ar    1  UNL1        0.0406
     10 C          63.4557   90.5128   11.3408 C.ar    1  UNL1        0.0181
     11 C          65.0970   92.4629   11.8443 C.ar    1  UNL1        0.1807
     12 N          65.0413   93.0814   10.4789 N.ar    1  UNL1       -0.1083
     13 N          65.8468   94.3464   10.5098 N.ar    1  UNL1       -0.0229
     14 N          66.4003   94.5098   11.8943 N.ar    1  UNL1       -0.0464
     15 N          65.9369   93.3457   12.7191 N.ar    1  UNL1       -0.2388
     16 H          66.1471   93.1886   13.6679 H       1  UNL1        0.1923
     17 C          59.0274   90.9702   11.6415 C.3     1  UNL1        0.0101
     18 C          59.8503   89.7772   12.0280 C.3     1  UNL1        0.0856
     19 C          62.3093   87.6192    9.7815 C.3     1  UNL1        0.1247
     20 C          62.5945   86.1880   10.1288 C.ar    1  UNL1       -0.0018
     21 C          63.1712   85.2662    9.0956 C.ar    1  UNL1        0.0005
     22 C          63.4564   83.8351    9.4428 C.ar    1  UNL1        0.0369
     23 C          63.1647   83.3258   10.8233 C.ar    1  UNL1        0.1468
     24 C          62.5880   84.2477   11.8565 C.ar    1  UNL1        0.0369
     25 C          62.3028   85.6788   11.5092 C.ar    1  UNL1        0.0005
     26 O          63.4499   81.8947   11.1705 O.3     1  UNL1       -0.4045
     27 C          63.4594   81.4587   12.6057 C.3     1  UNL1        0.5753
     28 F          63.4690   81.0227   14.0409 F       1  UNL1       -0.1328
     29 F          64.8909   81.8898   12.7272 F       1  UNL1       -0.1328
     30 F          62.0279   81.0276   12.4842 F       1  UNL1       -0.1328
@<TRIPOS>BOND
     1    17    18    1
     2    18     1    1
     3     1     2    2
     4     1     3   am
     5     3    19    1
     6    19    20    1
     7    20    21   ar
     8    21    22   ar
     9    22    23   ar
    10    23    26    1
    11    26    27    1
    12    27    28    1
    13    27    29    1
    14    27    30    1
    15    23    24   ar
    16    24    25   ar
    17     3     4    1
    18     4     5   ar
    19     5     6   ar
    20     6     7    1
    21     6     8   ar
    22     8     9   ar
    23     9    11    1
    24    11    12   ar
    25    12    13   ar
    26    13    14   ar
    27    14    15   ar
    28     9    10   ar
    29    25    20   ar
    30    10     4   ar
    31    15    11   ar
    32    15    16    1
@<TRIPOS>MOLECULE
*****
 30 32 0 0 0
SMALL
GASTEIGER

@<TRIPOS>ATOM
      1 C          65.3420   91.5791   13.4462 C.2     1  UNL1        0.2296
      2 O          65.5179   92.8149   12.6145 O.2     1  UNL1       -0.2745
      3 N          64.0746   90.7828   13.3476 N.am    1  UNL1       -0.2543
      4 C          63.8987   89.5470   14.1793 C.ar    1  UNL1        0.0565
      5 C          63.6197   89.6651   15.6484 C.ar    1  UNL1        0.0445
      6 C          63.4438   88.4292   16.4801 C.ar    1  UNL1        0.1415
      7 F          63.1647   88.5473   17.9492 F       1  UNL1       -0.2041
      8 C          63.5470   87.0753   15.8427 C.ar    1  UNL1        0.0328
      9 C          63.8261   86.9572   14.3737 C.ar    1  UNL1        0.0406
     10 C          64.0019   88.1930   13.5420 C.ar    1  UNL1        0.0181
     11 C          63.9293   85.6033   13.7363 C.ar    1  UNL1        0.1807
     12 N          64.8357   84.4904   14.1721 N.ar    1  UNL1       -0.1083
     13 N          64.6108   83.3238   13.2564 N.ar    1  UNL1       -0.0229
     14 N          63.5654   83.7157   12.2547 N.ar    1  UNL1       -0.0464
     15 N          63.1442   85.1245   12.5513 N.ar    1  UNL1       -0.2388
     16 H          62.4707   85.6437   12.0552 H       1  UNL1        0.1923
     17 C          67.6071   92.0377   14.6331 C.3     1  UNL1        0.0101
     18 C          66.4334   91.1396   14.3766 C.3     1  UNL1        0.0856
     19 C          62.9832   91.2223   12.4172 C.3     1  UNL1        0.1247
     20 C          62.1705   90.2005   11.6786 C.ar    1  UNL1       -0.0018
     21 C          60.7870   89.8606   12.1479 C.ar    1  UNL1        0.0005
     22 C          59.9744   88.8388   11.4092 C.ar    1  UNL1        0.0369
     23 C          60.5454   88.1569   10.2013 C.ar    1  UNL1        0.1468
     24 C          61.9289   88.4968    9.7321 C.ar    1  UNL1        0.0369
     25 C          62.7415   89.5186   10.4707 C.ar    1  UNL1        0.0005
     26 O          59.7327   87.1351    9.4627 O.3     1  UNL1       -0.4045
     27 C          60.3647   86.3171    8.3758 C.3     1  UNL1        0.5753
     28 F          60.9968   85.4991    7.2888 F       1  UNL1       -0.1328
     29 F          61.0654   85.4856    9.4089 F       1  UNL1       -0.1328
     30 F          59.6641   87.1487    7.3426 F       1  UNL1       -0.1328
@<TRIPOS>BOND
     1    17    18    1
     2    18     1    1
     3     1     2    2
     4     1     3   am
     5     3    19    1
     6    19    20    1
     7    20    21   ar
     8    21    22   ar
     9    22    23   ar
    10    23    26    1
    11    26    27    1
    12    27    28    1
    13    27    29    1
    14    27    30    1
    15    23    24   ar
    16    24    25   ar
    17     3     4    1
    18     4     5   ar
    19     5     6   ar
    20     6     7    1
    21     6     8   ar
    22     8     9   ar
    23     9    11    1
    24    11    12   ar
    25    12    13   ar
    26    13    14   ar
    27    14    15   ar
    28     9    10   ar
    29    25    20   ar
    30    10     4   ar
    31    15    11   ar
    32    15    16    1
@<TRIPOS>MOLECULE
*****
 30 32 0 0 0
SMALL
GASTEIGER

@<TRIPOS>ATOM
      1 C          61.9454   86.7594    9.8792 C.2     1  UNL1        0.2296
      2 O          61.3010   87.6733    8.8795 O.2     1  UNL1       -0.2745
      3 N          62.1410   87.2149   11.2949 N.am    1  UNL1       -0.2543
      4 C          62.7854   86.3008   12.2946 C.ar    1  UNL1        0.0565
      5 C          63.7481   86.8526   13.3039 C.ar    1  UNL1        0.0445
      6 C          64.3924   85.9386   14.3036 C.ar    1  UNL1        0.1415
      7 F          65.3551   86.4904   15.3130 F       1  UNL1       -0.2041
      8 C          64.0742   84.4728   14.2938 C.ar    1  UNL1        0.0328
      9 C          63.1116   83.9210   13.2845 C.ar    1  UNL1        0.0406
     10 C          62.4672   84.8350   12.2849 C.ar    1  UNL1        0.0181
     11 C          62.7933   82.4552   13.2748 C.ar    1  UNL1        0.1807
     12 N          63.0156   81.5123   12.1296 N.ar    1  UNL1       -0.1083
     13 N          62.5566   80.1492   12.5556 N.ar    1  UNL1       -0.0229
     14 N          62.0506   80.2498   13.9641 N.ar    1  UNL1       -0.0464
     15 N          62.1969   81.6749   14.4086 N.ar    1  UNL1       -0.2388
     16 H          61.9456   82.0349   15.2897 H       1  UNL1        0.1923
     17 C          63.0466   85.1878    8.1277 C.3     1  UNL1        0.0101
     18 C          62.3942   85.3898    9.4632 C.3     1  UNL1        0.0856
     19 C          61.6922   88.5843   11.7109 C.3     1  UNL1        0.1247
     20 C          62.6631   89.7277   11.6987 C.ar    1  UNL1       -0.0018
     21 C          63.3927   90.1057   12.9536 C.ar    1  UNL1        0.0005
     22 C          64.3635   91.2490   12.9413 C.ar    1  UNL1        0.0369
     23 C          64.6048   92.0144   11.6740 C.ar    1  UNL1        0.1468
     24 C          63.8752   91.6365   10.4191 C.ar    1  UNL1        0.0369
     25 C          62.9044   90.4932   10.4314 C.ar    1  UNL1        0.0005
     26 O          65.5757   93.1578   11.6617 O.3     1  UNL1       -0.4045
     27 C          66.1886   93.6074   10.3687 C.3     1  UNL1        0.5753
     28 F          66.8016   94.0570    9.0755 F       1  UNL1       -0.1328
     29 F          65.3242   94.8331   10.3851 F       1  UNL1       -0.1328
     30 F          67.0531   92.3817   10.3523 F       1  UNL1       -0.1328
@<TRIPOS>BOND
     1    17    18    1
     2    18     1    1
     3     1     2    2
     4     1     3   am
     5     3    19    1
     6    19    20    1
     7    20    21   ar
     8    21    22   ar
     9    22    23   ar
    10    23    26    1
    11    26    27    1
    12    27    28    1
    13    27    29    1
    14    27    30    1
    15    23    24   ar
    16    24    25   ar
    17     3     4    1
    18     4     5   ar
    19     5     6   ar
    20     6     7    1
    21     6     8   ar
    22     8     9   ar
    23     9    11    1
    24    11    12   ar
    25    12    13   ar
    26    13    14   ar
    27    14    15   ar
    28     9    10   ar
    29    25    20   ar
    30    10     4   ar
    31    15    11   ar
    32    15    16    1
