@<TRIPOS>MOLECULE
*****
 33 36 0 0 0
SMALL
GASTEIGER

@<TRIPOS>ATOM
      1 C          60.7451   88.1344    9.8028 C.2     1  UNL1        0.1892
      2 O          59.9319   88.4103    8.5728 O.2     1  UNL1       -0.2899
      3 C          63.2731   84.4193   10.0422 C.ar    1  UNL1        0.1386
      4 C          62.5593   84.9207   11.2625 C.ar    1  UNL1        0.0370
      5 C          61.7167   86.1590   11.1826 C.ar    1  UNL1        0.0060
      6 C          61.5878   86.8960    9.8825 C.ar    1  UNL1        0.0363
      7 C          62.3016   86.3946    8.6623 C.ar    1  UNL1        0.0060
      8 C          63.1442   85.1563    8.7421 C.ar    1  UNL1        0.0370
      9 O          64.1158   83.1809   10.1220 O.3     1  UNL1       -0.4754
     10 C          63.4687   81.8467   10.3481 C.3     1  UNL1        0.2068
     11 C          63.3821   81.2805   11.7345 C.3     1  UNL1        0.0646
     12 C          64.3019   81.7816   12.8081 C.3     1  UNL1        0.0759
     13 C          61.4524   81.6683   14.3945 C.3     1  UNL1        0.0173
     14 C          62.5001   82.7320   14.5387 C.3     1  UNL1        0.0576
     15 C          62.4219   83.9303   15.4375 C.3     1  UNL1        0.0174
     16 C          63.6835   84.7231   15.2638 C.3     1  UNL1        0.0187
     17 C          64.5413   84.0146   14.2577 C.3     1  UNL1        0.0721
     18 N          63.8099   82.7841   13.8096 N.3     1  UNL1       -0.2738
     19 C          60.7155   89.0969   10.9528 C.3     1  UNL1        0.1424
     20 N          61.9320   89.9110   11.2810 N.3     1  UNL1       -0.2632
     21 C          62.6294   90.6855   10.2023 C.3     1  UNL1        0.0942
     22 C          63.8458   91.4996   10.5305 C.3     1  UNL1        0.1111
     23 N          64.3647   91.5391   11.9373 N.am    1  UNL1       -0.2732
     24 C          65.5811   92.3532   12.2655 C.2     1  UNL1        0.2491
     25 O          66.1000   92.3927   13.6723 O.2     1  UNL1       -0.2699
     26 C          63.6672   90.7646   13.0160 C.3     1  UNL1        0.1111
     27 C          62.4509   89.9505   12.6878 C.3     1  UNL1        0.0942
     28 C          66.2785   93.1278   11.1868 C.ar    1  UNL1        0.0536
     29 C          67.3412   92.4691   10.3579 C.ar    1  UNL1        0.0045
     30 C          68.0386   93.2437    9.2793 C.ar    1  UNL1        0.0001
     31 C          67.6735   94.6770    9.0294 C.ar    1  UNL1        0.0000
     32 C          66.6109   95.3357    9.8583 C.ar    1  UNL1        0.0001
     33 C          65.9134   94.5610   10.9370 C.ar    1  UNL1        0.0045
@<TRIPOS>BOND
     1    14    13    1
     2    14    15    1
     3    15    16    1
     4    16    17    1
     5    17    18    1
     6    18    12    1
     7    12    11    1
     8    11    10    1
     9    10     9    1
    10     9     3    1
    11     3     4   ar
    12     4     5   ar
    13     5     6   ar
    14     6     1    1
    15     1     2    2
    16     1    19    1
    17    19    20    1
    18    20    21    1
    19    21    22    1
    20    22    23    1
    21    23    24   am
    22    24    25    2
    23    24    28    1
    24    28    29   ar
    25    29    30   ar
    26    30    31   ar
    27    31    32   ar
    28    32    33   ar
    29    23    26    1
    30    26    27    1
    31     6     7   ar
    32     7     8   ar
    33    18    14    1
    34     8     3   ar
    35    27    20    1
    36    33    28   ar
@<TRIPOS>MOLECULE
*****
 33 36 0 0 0
SMALL
GASTEIGER

@<TRIPOS>ATOM
      1 C          63.2589   83.0728   14.5868 C.2     1  UNL1        0.1892
      2 O          62.4137   81.9240   15.0514 O.2     1  UNL1       -0.2899
      3 C          63.3803   84.1555   10.2207 C.ar    1  UNL1        0.1386
      4 C          62.4251   84.8562   11.1409 C.ar    1  UNL1        0.0370
      5 C          62.3847   84.4952   12.5962 C.ar    1  UNL1        0.0060
      6 C          63.2994   83.4337   13.1314 C.ar    1  UNL1        0.0363
      7 C          64.2545   82.7331   12.2113 C.ar    1  UNL1        0.0060
      8 C          64.2950   83.0940   10.7559 C.ar    1  UNL1        0.0370
      9 O          63.4207   84.5164    8.7653 O.3     1  UNL1       -0.4754
     10 C          62.7210   85.7509    8.2790 C.3     1  UNL1        0.2068
     11 C          61.3768   85.6416    7.6222 C.3     1  UNL1        0.0646
     12 C          60.1583   86.1766    8.3142 C.3     1  UNL1        0.0759
     13 C          59.5734   89.1685    7.1499 C.3     1  UNL1        0.0173
     14 C          59.9700   88.8319    8.5568 C.3     1  UNL1        0.0576
     15 C          60.1674   89.8114    9.6754 C.3     1  UNL1        0.0174
     16 C          60.5583   89.0416   10.9021 C.3     1  UNL1        0.0187
     17 C          60.6025   87.5863   10.5415 C.3     1  UNL1        0.0721
     18 N          60.2389   87.4567    9.0920 N.3     1  UNL1       -0.2738
     19 C          64.0636   83.8607   15.5776 C.3     1  UNL1        0.1424
     20 N          63.9695   85.3577   15.5990 N.3     1  UNL1       -0.2632
     21 C          64.5853   86.1637   14.4940 C.3     1  UNL1        0.0942
     22 C          64.4913   87.6606   14.5155 C.3     1  UNL1        0.1111
     23 N          63.7814   88.3514   15.6420 N.am    1  UNL1       -0.2732
     24 C          63.6874   89.8483   15.6634 C.2     1  UNL1        0.2491
     25 O          62.9775   90.5391   16.7898 O.2     1  UNL1       -0.2699
     26 C          63.1656   87.5453   16.7469 C.3     1  UNL1        0.1111
     27 C          63.2597   86.0485   16.7255 C.3     1  UNL1        0.0942
     28 C          64.3032   90.6544   14.5584 C.ar    1  UNL1        0.0536
     29 C          65.6382   91.3077   14.7608 C.ar    1  UNL1        0.0045
     30 C          66.2540   92.1137   13.6559 C.ar    1  UNL1        0.0001
     31 C          65.5348   92.2665   12.3484 C.ar    1  UNL1        0.0000
     32 C          64.1998   91.6132   12.1459 C.ar    1  UNL1        0.0001
     33 C          63.5840   90.8071   13.2510 C.ar    1  UNL1        0.0045
@<TRIPOS>BOND
     1    14    13    1
     2    14    15    1
     3    15    16    1
     4    16    17    1
     5    17    18    1
     6    18    12    1
     7    12    11    1
     8    11    10    1
     9    10     9    1
    10     9     3    1
    11     3     4   ar
    12     4     5   ar
    13     5     6   ar
    14     6     1    1
    15     1     2    2
    16     1    19    1
    17    19    20    1
    18    20    21    1
    19    21    22    1
    20    22    23    1
    21    23    24   am
    22    24    25    2
    23    24    28    1
    24    28    29   ar
    25    29    30   ar
    26    30    31   ar
    27    31    32   ar
    28    32    33   ar
    29    23    26    1
    30    26    27    1
    31     6     7   ar
    32     7     8   ar
    33    18    14    1
    34     8     3   ar
    35    27    20    1
    36    33    28   ar
@<TRIPOS>MOLECULE
*****
 33 36 0 0 0
SMALL
GASTEIGER

@<TRIPOS>ATOM
      1 C          60.7123   88.4694   10.1714 C.2     1  UNL1        0.1892
      2 O          59.7642   88.9175    9.0989 O.2     1  UNL1       -0.2899
      3 C          63.0630   84.6676    9.6517 C.ar    1  UNL1        0.1386
      4 C          62.6931   85.1385   11.0270 C.ar    1  UNL1        0.0370
      5 C          61.9095   86.4058   11.2002 C.ar    1  UNL1        0.0060
      6 C          61.4959   87.2021    9.9982 C.ar    1  UNL1        0.0363
      7 C          61.8658   86.7311    8.6229 C.ar    1  UNL1        0.0060
      8 C          62.6494   85.4639    8.4497 C.ar    1  UNL1        0.0370
      9 O          63.8466   83.4002    9.4785 O.3     1  UNL1       -0.4754
     10 C          64.6127   82.8282   10.6342 C.3     1  UNL1        0.2068
     11 C          63.9912   81.7685   11.4950 C.3     1  UNL1        0.0646
     12 C          64.3124   81.7076   12.9589 C.3     1  UNL1        0.0759
     13 C          61.3525   81.6251   14.3306 C.3     1  UNL1        0.0173
     14 C          62.3848   82.6959   14.5249 C.3     1  UNL1        0.0576
     15 C          62.2377   83.9168   15.3839 C.3     1  UNL1        0.0174
     16 C          63.5074   84.7094   15.2842 C.3     1  UNL1        0.0187
     17 C          64.4391   83.9782   14.3637 C.3     1  UNL1        0.0721
     18 N          63.7453   82.7339   13.8944 N.3     1  UNL1       -0.2738
     19 C          60.8767   89.2885   11.4172 C.3     1  UNL1        0.1424
     20 N          62.1218   90.0995   11.6227 N.3     1  UNL1       -0.2632
     21 C          62.8560   90.0286   12.9288 C.3     1  UNL1        0.0942
     22 C          64.1010   90.8397   13.1342 C.3     1  UNL1        0.1111
     23 N          64.6117   91.7216   12.0336 N.am    1  UNL1       -0.2732
     24 C          65.8567   92.5326   12.2390 C.2     1  UNL1        0.2491
     25 O          66.3675   93.4145   11.1384 O.2     1  UNL1       -0.2699
     26 C          63.8775   91.7924   10.7275 C.3     1  UNL1        0.1111
     27 C          62.6325   90.9814   10.5221 C.3     1  UNL1        0.0942
     28 C          66.5910   92.4617   13.5451 C.ar    1  UNL1        0.0536
     29 C          65.8818   92.7979   14.8234 C.ar    1  UNL1        0.0045
     30 C          66.6160   92.7270   16.1294 C.ar    1  UNL1        0.0001
     31 C          68.0595   92.3200   16.1573 C.ar    1  UNL1        0.0000
     32 C          68.7687   91.9838   14.8790 C.ar    1  UNL1        0.0001
     33 C          68.0344   92.0547   13.5729 C.ar    1  UNL1        0.0045
@<TRIPOS>BOND
     1    14    13    1
     2    14    15    1
     3    15    16    1
     4    16    17    1
     5    17    18    1
     6    18    12    1
     7    12    11    1
     8    11    10    1
     9    10     9    1
    10     9     3    1
    11     3     4   ar
    12     4     5   ar
    13     5     6   ar
    14     6     1    1
    15     1     2    2
    16     1    19    1
    17    19    20    1
    18    20    21    1
    19    21    22    1
    20    22    23    1
    21    23    24   am
    22    24    25    2
    23    24    28    1
    24    28    29   ar
    25    29    30   ar
    26    30    31   ar
    27    31    32   ar
    28    32    33   ar
    29    23    26    1
    30    26    27    1
    31     6     7   ar
    32     7     8   ar
    33    18    14    1
    34     8     3   ar
    35    27    20    1
    36    33    28   ar
@<TRIPOS>MOLECULE
*****
 33 36 0 0 0
SMALL
GASTEIGER

@<TRIPOS>ATOM
      1 C          60.4574   90.0672   10.5810 C.2     1  UNL1        0.1892
      2 O          59.2356   90.8779   10.8974 O.2     1  UNL1       -0.2899
      3 C          64.3759   91.0328   12.5716 C.ar    1  UNL1        0.1386
      4 C          63.3150   90.2879   13.3261 C.ar    1  UNL1        0.0370
      5 C          62.0088   89.9660   12.6626 C.ar    1  UNL1        0.0060
      6 C          61.7636   90.3891   11.2445 C.ar    1  UNL1        0.0363
      7 C          62.8246   91.1341   10.4900 C.ar    1  UNL1        0.0060
      8 C          64.1307   91.4560   11.1536 C.ar    1  UNL1        0.0370
      9 O          65.6822   91.3547   13.2352 O.3     1  UNL1       -0.4754
     10 C          65.8465   92.6458   13.9808 C.3     1  UNL1        0.2068
     11 C          66.6078   93.7792   13.3595 C.3     1  UNL1        0.0646
     12 C          66.2313   94.2769   11.9955 C.3     1  UNL1        0.0759
     13 C          67.1366   96.1791    9.5032 C.3     1  UNL1        0.0173
     14 C          67.4343   94.7162    9.6493 C.3     1  UNL1        0.0576
     15 C          68.2003   93.8709    8.6754 C.3     1  UNL1        0.0174
     16 C          68.2577   92.4740    9.2191 C.3     1  UNL1        0.0187
     17 C          67.5271   92.4561   10.5290 C.3     1  UNL1        0.0721
     18 N          67.0182   93.8419   10.7949 N.3     1  UNL1       -0.2738
     19 C          60.3729   88.9347    9.6011 C.3     1  UNL1        0.1424
     20 N          61.1147   87.6578    9.8649 N.3     1  UNL1       -0.2632
     21 C          60.9284   86.9376   11.1673 C.3     1  UNL1        0.0942
     22 C          61.6701   85.6608   11.4310 C.3     1  UNL1        0.1111
     23 N          62.5981   85.1042   10.3923 N.am    1  UNL1       -0.2732
     24 C          63.3398   83.8273   10.6560 C.2     1  UNL1        0.2491
     25 O          64.2678   83.2708    9.6172 O.2     1  UNL1       -0.2699
     26 C          62.7844   85.8245    9.0898 C.3     1  UNL1        0.1111
     27 C          62.0427   87.1013    8.8261 C.3     1  UNL1        0.0942
     28 C          63.1535   83.1071   11.9585 C.ar    1  UNL1        0.0536
     29 C          62.3871   81.8183   11.9999 C.ar    1  UNL1        0.0045
     30 C          62.2008   81.0980   13.3023 C.ar    1  UNL1        0.0001
     31 C          62.7809   81.6665   14.5635 C.ar    1  UNL1        0.0000
     32 C          63.5473   82.9553   14.5221 C.ar    1  UNL1        0.0001
     33 C          63.7336   83.6756   13.2195 C.ar    1  UNL1        0.0045
@<TRIPOS>BOND
     1    14    13    1
     2    14    15    1
     3    15    16    1
     4    16    17    1
     5    17    18    1
     6    18    12    1
     7    12    11    1
     8    11    10    1
     9    10     9    1
    10     9     3    1
    11     3     4   ar
    12     4     5   ar
    13     5     6   ar
    14     6     1    1
    15     1     2    2
    16     1    19    1
    17    19    20    1
    18    20    21    1
    19    21    22    1
    20    22    23    1
    21    23    24   am
    22    24    25    2
    23    24    28    1
    24    28    29   ar
    25    29    30   ar
    26    30    31   ar
    27    31    32   ar
    28    32    33   ar
    29    23    26    1
    30    26    27    1
    31     6     7   ar
    32     7     8   ar
    33    18    14    1
    34     8     3   ar
    35    27    20    1
    36    33    28   ar
@<TRIPOS>MOLECULE
*****
 33 36 0 0 0
SMALL
GASTEIGER

@<TRIPOS>ATOM
      1 C          63.5501   83.6710   15.0155 C.2     1  UNL1        0.1892
      2 O          62.8212   82.5945   15.7636 O.2     1  UNL1       -0.2899
      3 C          63.4266   87.9186   16.4963 C.ar    1  UNL1        0.1386
      4 C          62.6561   86.8511   17.2151 C.ar    1  UNL1        0.0370
      5 C          62.6973   85.4352   16.7215 C.ar    1  UNL1        0.0060
      6 C          63.5089   85.0870   15.5091 C.ar    1  UNL1        0.0363
      7 C          64.2794   86.1545   14.7903 C.ar    1  UNL1        0.0060
      8 C          64.2382   87.5703   15.2839 C.ar    1  UNL1        0.0370
      9 O          63.3854   89.3345   16.9899 O.3     1  UNL1       -0.4754
     10 C          63.2207   90.4637   16.0164 C.3     1  UNL1        0.2068
     11 C          64.4027   91.3059   15.6375 C.3     1  UNL1        0.0646
     12 C          65.2794   90.8958   14.4916 C.3     1  UNL1        0.0759
     13 C          62.9765   89.6829   12.5231 C.3     1  UNL1        0.0173
     14 C          63.9097   90.8113   12.1978 C.3     1  UNL1        0.0576
     15 C          63.9482   91.5803   10.9105 C.3     1  UNL1        0.0174
     16 C          65.0306   92.6131   11.0197 C.3     1  UNL1        0.0187
     17 C          65.6610   92.4824   12.3745 C.3     1  UNL1        0.0721
     18 N          64.9683   91.3688   13.1026 N.3     1  UNL1       -0.2738
     19 C          64.3201   83.3317   13.7738 C.3     1  UNL1        0.1424
     20 N          63.8364   83.8103   12.4369 N.3     1  UNL1       -0.2632
     21 C          62.7636   84.8556   12.3578 C.3     1  UNL1        0.0942
     22 C          62.2799   85.3341   11.0210 C.3     1  UNL1        0.1111
     23 N          62.8690   84.7672    9.7634 N.am    1  UNL1       -0.2732
     24 C          62.3852   85.2458    8.4265 C.2     1  UNL1        0.2491
     25 O          62.9742   84.6789    7.1689 O.2     1  UNL1       -0.2699
     26 C          63.9417   83.7218    9.8425 C.3     1  UNL1        0.1111
     27 C          64.4254   83.2434   11.1793 C.3     1  UNL1        0.0942
     28 C          61.3124   86.2912    8.3474 C.ar    1  UNL1        0.0536
     29 C          61.5222   87.6311    8.9881 C.ar    1  UNL1        0.0045
     30 C          60.4495   88.6765    8.9089 C.ar    1  UNL1        0.0001
     31 C          59.1668   88.3820    8.1891 C.ar    1  UNL1        0.0000
     32 C          58.9570   87.0420    7.5484 C.ar    1  UNL1        0.0001
     33 C          60.0299   85.9966    7.6275 C.ar    1  UNL1        0.0045
@<TRIPOS>BOND
     1    14    13    1
     2    14    15    1
     3    15    16    1
     4    16    17    1
     5    17    18    1
     6    18    12    1
     7    12    11    1
     8    11    10    1
     9    10     9    1
    10     9     3    1
    11     3     4   ar
    12     4     5   ar
    13     5     6   ar
    14     6     1    1
    15     1     2    2
    16     1    19    1
    17    19    20    1
    18    20    21    1
    19    21    22    1
    20    22    23    1
    21    23    24   am
    22    24    25    2
    23    24    28    1
    24    28    29   ar
    25    29    30   ar
    26    30    31   ar
    27    31    32   ar
    28    32    33   ar
    29    23    26    1
    30    26    27    1
    31     6     7   ar
    32     7     8   ar
    33    18    14    1
    34     8     3   ar
    35    27    20    1
    36    33    28   ar
@<TRIPOS>MOLECULE
*****
 33 36 0 0 0
SMALL
GASTEIGER

@<TRIPOS>ATOM
      1 C          61.0539   87.7009    9.7804 C.2     1  UNL1        0.1892
      2 O          60.5188   87.6571    8.3797 O.2     1  UNL1       -0.2899
      3 C          63.2530   84.1525   11.4606 C.ar    1  UNL1        0.1386
      4 C          62.4064   85.0045   12.3592 C.ar    1  UNL1        0.0370
      5 C          61.6734   86.1872   11.7991 C.ar    1  UNL1        0.0060
      6 C          61.7870   86.5180   10.3404 C.ar    1  UNL1        0.0363
      7 C          62.6336   85.6661    9.4419 C.ar    1  UNL1        0.0060
      8 C          63.3666   84.4833   10.0020 C.ar    1  UNL1        0.0370
      9 O          63.9861   82.9697   12.0207 O.3     1  UNL1       -0.4754
     10 C          64.0607   82.7677   13.5051 C.3     1  UNL1        0.2068
     11 C          64.6491   83.8358   14.3788 C.3     1  UNL1        0.0646
     12 C          63.7988   84.5112   15.4135 C.3     1  UNL1        0.0759
     13 C          62.4566   86.2437   17.8314 C.3     1  UNL1        0.0173
     14 C          63.2103   86.8011   16.6604 C.3     1  UNL1        0.0576
     15 C          63.4794   88.2528   16.3952 C.3     1  UNL1        0.0174
     16 C          64.2627   88.3536   15.1199 C.3     1  UNL1        0.0187
     17 C          64.4777   86.9643   14.5969 C.3     1  UNL1        0.0721
     18 N          63.8273   86.0048   15.5490 N.3     1  UNL1       -0.2738
     19 C          60.8559   88.9273   10.6209 C.3     1  UNL1        0.1424
     20 N          62.0215   89.8181   10.9341 N.3     1  UNL1       -0.2632
     21 C          62.7296   89.6917   12.2504 C.3     1  UNL1        0.0942
     22 C          63.8951   90.5825   12.5636 C.3     1  UNL1        0.1111
     23 N          64.3525   91.5996   11.5604 N.am    1  UNL1       -0.2732
     24 C          65.5181   92.4904   11.8737 C.2     1  UNL1        0.2491
     25 O          65.9755   93.5075   10.8706 O.2     1  UNL1       -0.2699
     26 C          63.6444   91.7260   10.2442 C.3     1  UNL1        0.1111
     27 C          62.4789   90.8352    9.9310 C.3     1  UNL1        0.0942
     28 C          66.2262   92.3640   13.1899 C.ar    1  UNL1        0.0536
     29 C          67.6683   91.9532   13.2294 C.ar    1  UNL1        0.0045
     30 C          68.3763   91.8268   14.5457 C.ar    1  UNL1        0.0001
     31 C          67.6423   92.1113   15.8226 C.ar    1  UNL1        0.0000
     32 C          66.2002   92.5221   15.7831 C.ar    1  UNL1        0.0001
     33 C          65.4921   92.6485   14.4667 C.ar    1  UNL1        0.0045
@<TRIPOS>BOND
     1    14    13    1
     2    14    15    1
     3    15    16    1
     4    16    17    1
     5    17    18    1
     6    18    12    1
     7    12    11    1
     8    11    10    1
     9    10     9    1
    10     9     3    1
    11     3     4   ar
    12     4     5   ar
    13     5     6   ar
    14     6     1    1
    15     1     2    2
    16     1    19    1
    17    19    20    1
    18    20    21    1
    19    21    22    1
    20    22    23    1
    21    23    24   am
    22    24    25    2
    23    24    28    1
    24    28    29   ar
    25    29    30   ar
    26    30    31   ar
    27    31    32   ar
    28    32    33   ar
    29    23    26    1
    30    26    27    1
    31     6     7   ar
    32     7     8   ar
    33    18    14    1
    34     8     3   ar
    35    27    20    1
    36    33    28   ar
@<TRIPOS>MOLECULE
*****
 33 36 0 0 0
SMALL
GASTEIGER

@<TRIPOS>ATOM
      1 C          60.0951   88.7908    8.2635 C.2     1  UNL1        0.1892
      2 O          59.3759   89.7134    7.3246 O.2     1  UNL1       -0.2899
      3 C          62.2619   90.4590   11.8373 C.ar    1  UNL1        0.1386
      4 C          63.0393   89.9187   10.6738 C.ar    1  UNL1        0.0370
      5 C          62.3170   89.3627    9.4826 C.ar    1  UNL1        0.0060
      6 C          60.8174   89.3469    9.4548 C.ar    1  UNL1        0.0363
      7 C          60.0400   89.8871   10.6183 C.ar    1  UNL1        0.0060
      8 C          60.7622   90.4432   11.8095 C.ar    1  UNL1        0.0370
      9 O          62.9841   91.0151   13.0286 O.3     1  UNL1       -0.4754
     10 C          64.4837   91.0208   13.0612 C.3     1  UNL1        0.2068
     11 C          65.2400   92.2198   12.5707 C.3     1  UNL1        0.0646
     12 C          65.1297   92.6405   11.1351 C.3     1  UNL1        0.0759
     13 C          65.7303   95.6957   10.1585 C.3     1  UNL1        0.0173
     14 C          66.6241   94.5101    9.9453 C.3     1  UNL1        0.0576
     15 C          67.9509   94.5208    9.2458 C.3     1  UNL1        0.0174
     16 C          68.4949   93.1229    9.2623 C.3     1  UNL1        0.0187
     17 C          67.5043   92.2484    9.9721 C.3     1  UNL1        0.0721
     18 N          66.3480   93.1058   10.3942 N.3     1  UNL1       -0.2738
     19 C          60.0922   87.3122    8.0111 C.3     1  UNL1        0.1424
     20 N          61.0104   86.4167    8.7889 N.3     1  UNL1       -0.2632
     21 C          60.8489   86.2850   10.2743 C.3     1  UNL1        0.0942
     22 C          61.7672   85.3895   11.0521 C.3     1  UNL1        0.1111
     23 N          62.8469   84.6258   10.3444 N.am    1  UNL1       -0.2732
     24 C          63.7652   83.7303   11.1222 C.2     1  UNL1        0.2491
     25 O          64.8450   82.9666   10.4145 O.2     1  UNL1       -0.2699
     26 C          63.0085   84.7575    8.8590 C.3     1  UNL1        0.1111
     27 C          62.0902   85.6530    8.0812 C.3     1  UNL1        0.0942
     28 C          63.6037   83.5986   12.6076 C.ar    1  UNL1        0.0536
     29 C          64.4307   84.4444   13.5299 C.ar    1  UNL1        0.0045
     30 C          64.2692   84.3127   15.0153 C.ar    1  UNL1        0.0001
     31 C          63.2806   83.3351   15.5785 C.ar    1  UNL1        0.0000
     32 C          62.4536   82.4892   14.6563 C.ar    1  UNL1        0.0001
     33 C          62.6152   82.6210   13.1708 C.ar    1  UNL1        0.0045
@<TRIPOS>BOND
     1    14    13    1
     2    14    15    1
     3    15    16    1
     4    16    17    1
     5    17    18    1
     6    18    12    1
     7    12    11    1
     8    11    10    1
     9    10     9    1
    10     9     3    1
    11     3     4   ar
    12     4     5   ar
    13     5     6   ar
    14     6     1    1
    15     1     2    2
    16     1    19    1
    17    19    20    1
    18    20    21    1
    19    21    22    1
    20    22    23    1
    21    23    24   am
    22    24    25    2
    23    24    28    1
    24    28    29   ar
    25    29    30   ar
    26    30    31   ar
    27    31    32   ar
    28    32    33   ar
    29    23    26    1
    30    26    27    1
    31     6     7   ar
    32     7     8   ar
    33    18    14    1
    34     8     3   ar
    35    27    20    1
    36    33    28   ar
@<TRIPOS>MOLECULE
*****
 33 36 0 0 0
SMALL
GASTEIGER

@<TRIPOS>ATOM
      1 C          63.6388   83.7438   15.0028 C.2     1  UNL1        0.1892
      2 O          62.9320   82.6322   15.7203 O.2     1  UNL1       -0.2899
      3 C          63.3828   87.9542   16.5702 C.ar    1  UNL1        0.1386
      4 C          62.6573   86.8464   17.2745 C.ar    1  UNL1        0.0370
      5 C          62.7426   85.4429   16.7521 C.ar    1  UNL1        0.0060
      6 C          63.5535   85.1473   15.5253 C.ar    1  UNL1        0.0363
      7 C          64.2790   86.2552   14.8209 C.ar    1  UNL1        0.0060
      8 C          64.1936   87.6587   15.3433 C.ar    1  UNL1        0.0370
      9 O          63.2974   89.3578   17.0926 O.3     1  UNL1       -0.4754
     10 C          63.2622   90.5131   16.1366 C.3     1  UNL1        0.2068
     11 C          64.3744   91.5197   16.1352 C.3     1  UNL1        0.0646
     12 C          65.2690   91.6472   14.9380 C.3     1  UNL1        0.0759
     13 C          67.5077   91.8646   12.5736 C.3     1  UNL1        0.0173
     14 C          67.7200   92.1930   14.0217 C.3     1  UNL1        0.0576
     15 C          68.9986   92.6789   14.6372 C.3     1  UNL1        0.0174
     16 C          68.7599   92.8794   16.1045 C.3     1  UNL1        0.0187
     17 C          67.3337   92.5173   16.3958 C.3     1  UNL1        0.0721
     18 N          66.6910   92.0931   15.1085 N.3     1  UNL1       -0.2738
     19 C          64.4309   83.4519   13.7629 C.3     1  UNL1        0.1424
     20 N          63.9167   83.8905   12.4238 N.3     1  UNL1       -0.2632
     21 C          62.8409   84.9323   12.3379 C.3     1  UNL1        0.0942
     22 C          62.3268   85.3708   10.9988 C.3     1  UNL1        0.1111
     23 N          62.8883   84.7675    9.7455 N.am    1  UNL1       -0.2732
     24 C          62.3741   85.2061    8.4064 C.2     1  UNL1        0.2491
     25 O          62.9356   84.6028    7.1531 O.2     1  UNL1       -0.2699
     26 C          63.9641   83.7257    9.8314 C.3     1  UNL1        0.1111
     27 C          64.4782   83.2872   11.1705 C.3     1  UNL1        0.0942
     28 C          61.2983   86.2479    8.3205 C.ar    1  UNL1        0.0536
     29 C          61.4974   87.5866    8.9672 C.ar    1  UNL1        0.0045
     30 C          60.4217   88.6284    8.8813 C.ar    1  UNL1        0.0001
     31 C          59.1468   88.3315    8.1489 C.ar    1  UNL1        0.0000
     32 C          58.9477   86.9927    7.5022 C.ar    1  UNL1        0.0001
     33 C          60.0235   85.9509    7.5881 C.ar    1  UNL1        0.0045
@<TRIPOS>BOND
     1    14    13    1
     2    14    15    1
     3    15    16    1
     4    16    17    1
     5    17    18    1
     6    18    12    1
     7    12    11    1
     8    11    10    1
     9    10     9    1
    10     9     3    1
    11     3     4   ar
    12     4     5   ar
    13     5     6   ar
    14     6     1    1
    15     1     2    2
    16     1    19    1
    17    19    20    1
    18    20    21    1
    19    21    22    1
    20    22    23    1
    21    23    24   am
    22    24    25    2
    23    24    28    1
    24    28    29   ar
    25    29    30   ar
    26    30    31   ar
    27    31    32   ar
    28    32    33   ar
    29    23    26    1
    30    26    27    1
    31     6     7   ar
    32     7     8   ar
    33    18    14    1
    34     8     3   ar
    35    27    20    1
    36    33    28   ar
@<TRIPOS>MOLECULE
*****
 33 36 0 0 0
SMALL
GASTEIGER

@<TRIPOS>ATOM
      1 C          61.0253   88.1323   11.3034 C.2     1  UNL1        0.1892
      2 O          61.4307   86.7315   11.6547 O.2     1  UNL1       -0.2899
      3 C          59.3792   89.0399    7.2148 C.ar    1  UNL1        0.1386
      4 C          59.7694   90.1608    8.1320 C.ar    1  UNL1        0.0370
      5 C          60.3181   89.8583    9.4949 C.ar    1  UNL1        0.0060
      6 C          60.4766   88.4348    9.9405 C.ar    1  UNL1        0.0363
      7 C          60.0864   87.3139    9.0233 C.ar    1  UNL1        0.0060
      8 C          59.5377   87.6164    7.6605 C.ar    1  UNL1        0.0370
      9 O          58.8305   89.3424    5.8519 O.3     1  UNL1       -0.4754
     10 C          58.2572   90.6970    5.5580 C.3     1  UNL1        0.2068
     11 C          59.0226   91.6670    4.7075 C.3     1  UNL1        0.0646
     12 C          60.4840   91.4479    4.4501 C.3     1  UNL1        0.0759
     13 C          63.4858   90.8565    3.3149 C.3     1  UNL1        0.0173
     14 C          62.5499   91.9194    2.8208 C.3     1  UNL1        0.0576
     15 C          62.8295   92.8972    1.7182 C.3     1  UNL1        0.0174
     16 C          61.6225   93.7734    1.5585 C.3     1  UNL1        0.0187
     17 C          60.5969   93.3371    2.5624 C.3     1  UNL1        0.0721
     18 N          61.1701   92.1913    3.3426 N.3     1  UNL1       -0.2738
     19 C          61.1684   89.2305   12.3150 C.3     1  UNL1        0.1424
     20 N          62.4407   90.0219   12.3879 N.3     1  UNL1       -0.2632
     21 C          62.9367   90.7574   11.1785 C.3     1  UNL1        0.0942
     22 C          64.2089   91.5487   11.2514 C.3     1  UNL1        0.1111
     23 N          64.9850   91.6045   12.5338 N.am    1  UNL1       -0.2732
     24 C          66.2572   92.3959   12.6067 C.2     1  UNL1        0.2491
     25 O          67.0333   92.4517   13.8891 O.2     1  UNL1       -0.2699
     26 C          64.4889   90.8690   13.7433 C.3     1  UNL1        0.1111
     27 C          63.2168   90.0776   13.6703 C.3     1  UNL1        0.0942
     28 C          66.7533   93.1314   11.3973 C.ar    1  UNL1        0.0536
     29 C          66.3577   94.5611   11.1743 C.ar    1  UNL1        0.0045
     30 C          66.8538   95.2966    9.9648 C.ar    1  UNL1        0.0001
     31 C          67.7455   94.6025    8.9782 C.ar    1  UNL1        0.0000
     32 C          68.1410   93.1729    9.2012 C.ar    1  UNL1        0.0001
     33 C          67.6449   92.4374   10.4108 C.ar    1  UNL1        0.0045
@<TRIPOS>BOND
     1    14    13    1
     2    14    15    1
     3    15    16    1
     4    16    17    1
     5    17    18    1
     6    18    12    1
     7    12    11    1
     8    11    10    1
     9    10     9    1
    10     9     3    1
    11     3     4   ar
    12     4     5   ar
    13     5     6   ar
    14     6     1    1
    15     1     2    2
    16     1    19    1
    17    19    20    1
    18    20    21    1
    19    21    22    1
    20    22    23    1
    21    23    24   am
    22    24    25    2
    23    24    28    1
    24    28    29   ar
    25    29    30   ar
    26    30    31   ar
    27    31    32   ar
    28    32    33   ar
    29    23    26    1
    30    26    27    1
    31     6     7   ar
    32     7     8   ar
    33    18    14    1
    34     8     3   ar
    35    27    20    1
    36    33    28   ar
