@<TRIPOS>MOLECULE
*****
 44 49 0 0 0
SMALL
GASTEIGER

@<TRIPOS>ATOM
      1 C          59.1712   89.8633    6.4372 C.2     1  UNL1        0.2461
      2 O          57.7728   89.3548    6.6268 O.2     1  UNL1       -0.2701
      3 N          60.2687   89.3966    7.3469 N.am    1  UNL1       -0.2964
      4 H          61.1865   89.7303    7.2225 H       1  UNL1        0.1501
      5 C          63.7181   91.4579    3.0352 C.3     1  UNL1        0.1305
      6 N          62.3984   92.1496    2.8621 N.ar    1  UNL1       -0.3242
      7 C          62.0985   93.2438    1.8809 C.ar    1  UNL1        0.0738
      8 C          60.6616   93.6389    2.0523 C.ar    1  UNL1       -0.0038
      9 C          60.0736   92.7889    3.1393 C.ar    1  UNL1        0.0133
     10 C          58.6994   92.7342    3.7381 C.ar    1  UNL1        0.0013
     11 C          58.3986   91.7590    4.8374 C.ar    1  UNL1        0.0046
     12 C          59.4720   90.8385    5.3379 C.ar    1  UNL1        0.0548
     13 C          60.8462   90.8932    4.7392 C.ar    1  UNL1        0.0217
     14 C          61.1470   91.8684    3.6399 C.ar    1  UNL1        0.0598
     15 C          63.0655   93.8384    0.9005 C.ar    1  UNL1        0.0967
     16 C          62.9377   93.5280   -0.5614 C.ar    1  UNL1        0.0206
     17 C          63.9047   94.1227   -1.5418 C.ar    1  UNL1        0.0032
     18 C          64.9997   95.0277   -1.0602 C.ar    1  UNL1        0.0207
     19 C          65.1276   95.3381    0.4017 C.ar    1  UNL1        0.0989
     20 N          64.1605   94.7434    1.3821 N.ar    1  UNL1       -0.2424
     21 C          59.9396   94.6980    1.2733 C.3     1  UNL1        0.0238
     22 C          59.9885   96.1738    1.5367 C.3     1  UNL1        0.0044
     23 C          59.1210   96.8553    0.5203 C.3     1  UNL1        0.0003
     24 C          58.5359   95.8005   -0.3714 C.3     1  UNL1        0.0003
     25 C          59.0418   94.4672    0.0940 C.3     1  UNL1        0.0044
     26 C          59.9678   88.4213    8.4463 C.3     1  UNL1        0.1260
     27 C          59.1855   87.5778    7.4838 C.3     1  UNL1        0.0270
     28 C          58.8846   86.6026    8.5831 C.3     1  UNL1        0.0043
     29 C          59.6670   87.4461    9.5455 C.3     1  UNL1        0.0270
     30 C          60.7502   89.2649    9.4087 C.2     1  UNL1        0.2419
     31 O          60.1200   90.4776   10.0270 O.2     1  UNL1       -0.2731
     32 N          62.1627   88.8957    9.7530 N.am    1  UNL1       -0.2826
     33 H          62.5763   88.0997    9.3473 H       1  UNL1        0.1549
     34 C          62.9450   89.7393   10.7155 C.ar    1  UNL1        0.0503
     35 C          63.1203   89.2898   12.1358 C.ar    1  UNL1        0.0147
     36 C          63.9026   90.1333   13.0983 C.ar    1  UNL1        0.0013
     37 C          64.5097   91.4264   12.6405 C.ar    1  UNL1        0.0001
     38 C          64.3344   91.8758   11.2202 C.ar    1  UNL1        0.0013
     39 C          63.5521   91.0322   10.2577 C.ar    1  UNL1        0.0147
     40 C          65.2920   92.2699   13.6030 C.2     1  UNL1        0.0012
     41 C          66.5559   91.7378   14.2109 C.2     1  UNL1        0.0151
     42 C          67.3382   92.5813   15.1734 C.2     1  UNL1        0.0729
     43 O          66.7496   92.9411   16.5054 O.co2   1  UNL1       -0.5446
     44 O          68.7091   93.0651   14.8039 O.co2   1  UNL1       -0.5446
@<TRIPOS>UNITY_ATOM_ATTR
43 1
charge -1
@<TRIPOS>BOND
     1     5     6    1
     2     6     7   ar
     3     7    15    1
     4    15    16   ar
     5    16    17   ar
     6    17    18   ar
     7    18    19   ar
     8    19    20   ar
     9     7     8   ar
    10     8    21    1
    11    21    22    1
    12    22    23    1
    13    23    24    1
    14    24    25    1
    15     8     9   ar
    16     9    10   ar
    17    10    11   ar
    18    11    12   ar
    19    12     1    1
    20     1     2    2
    21     1     3   am
    22     3    26    1
    23    26    30    1
    24    30    31    2
    25    30    32   am
    26    32    34    1
    27    34    35   ar
    28    35    36   ar
    29    36    37   ar
    30    37    40    1
    31    40    41    2
    32    41    42    1
    33    42    43   ar
    34    42    44   ar
    35    37    38   ar
    36    38    39   ar
    37    26    27    1
    38    27    28    1
    39    28    29    1
    40    12    13   ar
    41    13    14   ar
    42    14     6   ar
    43    20    15   ar
    44    25    21    1
    45    14     9   ar
    46    29    26    1
    47    39    34   ar
    48     3     4    1
    49    32    33    1
@<TRIPOS>MOLECULE
*****
 44 49 0 0 0
SMALL
GASTEIGER

@<TRIPOS>ATOM
      1 C          58.8419   89.2070    6.7746 C.2     1  UNL1        0.2461
      2 O          57.3641   88.9622    6.6968 O.2     1  UNL1       -0.2701
      3 N          59.4643   90.3036    5.9620 N.am    1  UNL1       -0.2964
      4 H          60.4342   90.4642    6.0131 H       1  UNL1        0.1501
      5 C          61.7304   89.6421   11.8989 C.3     1  UNL1        0.1305
      6 N          61.7739   88.3469   11.1435 N.ar    1  UNL1       -0.3242
      7 C          62.4995   87.1039   11.5657 C.ar    1  UNL1        0.0738
      8 C          62.2735   86.0562   10.5163 C.ar    1  UNL1       -0.0038
      9 C          61.4082   86.6517    9.4455 C.ar    1  UNL1        0.0133
     10 C          60.8616   86.0877    8.1676 C.ar    1  UNL1        0.0013
     11 C          60.0062   86.9395    7.2773 C.ar    1  UNL1        0.0046
     12 C          59.6974   88.3552    7.6649 C.ar    1  UNL1        0.0548
     13 C          60.2440   88.9192    8.9428 C.ar    1  UNL1        0.0217
     14 C          61.0994   88.0675    9.8331 C.ar    1  UNL1        0.0598
     15 C          63.3091   86.9377   12.8176 C.ar    1  UNL1        0.0967
     16 C          63.6034   85.5642   13.3436 C.ar    1  UNL1        0.0206
     17 C          64.4129   85.3980   14.5954 C.ar    1  UNL1        0.0032
     18 C          64.9281   86.6054   15.3212 C.ar    1  UNL1        0.0207
     19 C          64.6337   87.9789   14.7952 C.ar    1  UNL1        0.0989
     20 N          63.8242   88.1451   13.5434 N.ar    1  UNL1       -0.2424
     21 C          62.8173   84.6583   10.5345 C.3     1  UNL1        0.0238
     22 C          63.8750   84.1118    9.6221 C.3     1  UNL1        0.0044
     23 C          64.1103   82.6773    9.9920 C.3     1  UNL1        0.0003
     24 C          63.1980   82.3373   11.1331 C.3     1  UNL1        0.0003
     25 C          62.3989   83.5616   11.4684 C.3     1  UNL1        0.0044
     26 C          58.6088   91.1553    5.0717 C.3     1  UNL1        0.1260
     27 C          57.3783   90.6198    5.7417 C.3     1  UNL1        0.0270
     28 C          56.5228   91.4715    4.8514 C.3     1  UNL1        0.0043
     29 C          57.7533   92.0071    4.1814 C.3     1  UNL1        0.0270
     30 C          59.8393   91.6909    4.4017 C.2     1  UNL1        0.2419
     31 O          61.1970   91.2572    4.8693 O.2     1  UNL1       -0.2731
     32 N          59.7122   92.6602    3.2640 N.am    1  UNL1       -0.2826
     33 H          58.8212   92.9449    2.9570 H       1  UNL1        0.1549
     34 C          60.9428   93.1958    2.5940 C.ar    1  UNL1        0.0503
     35 C          60.9256   94.5622    1.9754 C.ar    1  UNL1        0.0147
     36 C          62.1561   95.0978    1.3054 C.ar    1  UNL1        0.0013
     37 C          63.4040   94.2669    1.2540 C.ar    1  UNL1        0.0001
     38 C          63.4213   92.9005    1.8726 C.ar    1  UNL1        0.0013
     39 C          62.1906   92.3650    2.5426 C.ar    1  UNL1        0.0147
     40 C          64.6345   94.8025    0.5840 C.2     1  UNL1        0.0012
     41 C          64.5143   95.8717   -0.4612 C.2     1  UNL1        0.0151
     42 C          65.7448   96.4073   -1.1312 C.2     1  UNL1        0.0729
     43 O          65.8061   96.4953   -2.6274 O.co2   1  UNL1       -0.5446
     44 O          66.9141   96.8549   -0.3050 O.co2   1  UNL1       -0.5446
@<TRIPOS>UNITY_ATOM_ATTR
43 1
charge -1
@<TRIPOS>BOND
     1     5     6    1
     2     6     7   ar
     3     7    15    1
     4    15    16   ar
     5    16    17   ar
     6    17    18   ar
     7    18    19   ar
     8    19    20   ar
     9     7     8   ar
    10     8    21    1
    11    21    22    1
    12    22    23    1
    13    23    24    1
    14    24    25    1
    15     8     9   ar
    16     9    10   ar
    17    10    11   ar
    18    11    12   ar
    19    12     1    1
    20     1     2    2
    21     1     3   am
    22     3    26    1
    23    26    30    1
    24    30    31    2
    25    30    32   am
    26    32    34    1
    27    34    35   ar
    28    35    36   ar
    29    36    37   ar
    30    37    40    1
    31    40    41    2
    32    41    42    1
    33    42    43   ar
    34    42    44   ar
    35    37    38   ar
    36    38    39   ar
    37    26    27    1
    38    27    28    1
    39    28    29    1
    40    12    13   ar
    41    13    14   ar
    42    14     6   ar
    43    20    15   ar
    44    25    21    1
    45    14     9   ar
    46    29    26    1
    47    39    34   ar
    48     3     4    1
    49    32    33    1
@<TRIPOS>MOLECULE
*****
 44 49 0 0 0
SMALL
GASTEIGER

@<TRIPOS>ATOM
      1 C          61.1247   89.4316    9.8878 C.2     1  UNL1        0.2461
      2 O          60.1626   88.9046   10.9109 O.2     1  UNL1       -0.2701
      3 N          60.9689   89.0506    8.4455 N.am    1  UNL1       -0.2964
      4 H          61.6004   89.3964    7.7740 H       1  UNL1        0.1501
      5 C          64.9542   89.9998   14.3379 C.3     1  UNL1        0.1305
      6 N          64.9903   90.9904   13.2121 N.ar    1  UNL1       -0.3242
      7 C          65.9299   92.1534   13.0908 C.ar    1  UNL1        0.0738
      8 C          65.6134   92.8736   11.8137 C.ar    1  UNL1       -0.0038
      9 C          64.4782   92.1559   11.1458 C.ar    1  UNL1        0.0133
     10 C          63.7455   92.4117    9.8622 C.ar    1  UNL1        0.0013
     11 C          62.6276   91.5037    9.4429 C.ar    1  UNL1        0.0046
     12 C          62.2426   90.3397   10.3072 C.ar    1  UNL1        0.0548
     13 C          62.9753   90.0838   11.5907 C.ar    1  UNL1        0.0217
     14 C          64.0931   90.9919   12.0100 C.ar    1  UNL1        0.0598
     15 C          66.9983   92.5299   14.0740 C.ar    1  UNL1        0.0967
     16 C          66.6213   93.0877   15.4144 C.ar    1  UNL1        0.0206
     17 C          67.6898   93.4642   16.3976 C.ar    1  UNL1        0.0032
     18 C          69.1352   93.2830   16.0403 C.ar    1  UNL1        0.0207
     19 C          69.5123   92.7253   14.6999 C.ar    1  UNL1        0.0989
     20 N          68.4438   92.3487   13.7168 N.ar    1  UNL1       -0.2424
     21 C          66.3097   94.0970   11.2956 C.3     1  UNL1        0.0238
     22 C          66.2083   95.4790   11.8696 C.3     1  UNL1        0.0044
     23 C          67.0657   96.3893   11.0412 C.3     1  UNL1        0.0003
     24 C          67.6971   95.5697    9.9550 C.3     1  UNL1        0.0003
     25 C          67.2299   94.1530   10.1122 C.3     1  UNL1        0.0044
     26 C          59.8510   88.1425    8.0261 C.3     1  UNL1        0.1260
     27 C          59.3285   89.2089    7.1099 C.3     1  UNL1        0.0270
     28 C          58.2107   88.3009    6.6905 C.3     1  UNL1        0.0043
     29 C          58.7332   87.2344    7.6068 C.3     1  UNL1        0.0270
     30 C          60.3735   87.0760    8.9424 C.2     1  UNL1        0.2419
     31 O          59.4290   86.3211    9.8302 O.2     1  UNL1       -0.2731
     32 N          61.8405   86.7644    8.9710 N.am    1  UNL1       -0.2826
     33 H          62.4605   87.2599    8.3883 H       1  UNL1        0.1549
     34 C          62.3630   85.6979    9.8873 C.ar    1  UNL1        0.0503
     35 C          63.2028   84.5828    9.3384 C.ar    1  UNL1        0.0147
     36 C          63.7253   83.5163   10.2546 C.ar    1  UNL1        0.0013
     37 C          63.4080   83.5649   11.7200 C.ar    1  UNL1        0.0001
     38 C          62.5683   84.6801   12.2689 C.ar    1  UNL1        0.0013
     39 C          62.0458   85.7466   11.3526 C.ar    1  UNL1        0.0147
     40 C          63.9305   82.4985   12.6362 C.2     1  UNL1        0.0012
     41 C          63.0218   81.4009   13.1048 C.2     1  UNL1        0.0151
     42 C          63.5443   80.3344   14.0210 C.2     1  UNL1        0.0729
     43 O          62.6873   79.1509   14.3600 O.co2   1  UNL1       -0.5446
     44 O          64.9238   80.4514   14.5983 O.co2   1  UNL1       -0.5446
@<TRIPOS>UNITY_ATOM_ATTR
43 1
charge -1
@<TRIPOS>BOND
     1     5     6    1
     2     6     7   ar
     3     7    15    1
     4    15    16   ar
     5    16    17   ar
     6    17    18   ar
     7    18    19   ar
     8    19    20   ar
     9     7     8   ar
    10     8    21    1
    11    21    22    1
    12    22    23    1
    13    23    24    1
    14    24    25    1
    15     8     9   ar
    16     9    10   ar
    17    10    11   ar
    18    11    12   ar
    19    12     1    1
    20     1     2    2
    21     1     3   am
    22     3    26    1
    23    26    30    1
    24    30    31    2
    25    30    32   am
    26    32    34    1
    27    34    35   ar
    28    35    36   ar
    29    36    37   ar
    30    37    40    1
    31    40    41    2
    32    41    42    1
    33    42    43   ar
    34    42    44   ar
    35    37    38   ar
    36    38    39   ar
    37    26    27    1
    38    27    28    1
    39    28    29    1
    40    12    13   ar
    41    13    14   ar
    42    14     6   ar
    43    20    15   ar
    44    25    21    1
    45    14     9   ar
    46    29    26    1
    47    39    34   ar
    48     3     4    1
    49    32    33    1
