@<TRIPOS>MOLECULE
*****
 25 27 0 0 0
SMALL
GASTEIGER

@<TRIPOS>ATOM
      1 C          63.2466   89.4433   16.4935 C.3     1  UNL1        0.0522
      2 C          63.5560   90.0013   15.1360 C.ar    1  UNL1        0.0625
      3 C          64.4931   91.1645   14.9990 C.ar    1  UNL1        0.0522
      4 C          64.8025   91.7225   13.6415 C.ar    1  UNL1        0.1483
      5 C          64.1747   91.1174   12.4210 C.ar    1  UNL1        0.0612
      6 C          63.2376   89.9543   12.5579 C.ar    1  UNL1        0.1374
      7 N          62.9282   89.3962   13.9155 N.ar    1  UNL1       -0.2449
      8 C          62.6098   89.3491   11.3374 C.2     1  UNL1        0.2684
      9 O          62.5153   90.1452   10.0696 O.2     1  UNL1       -0.2681
     10 N          62.0764   87.9480   11.3847 N.am    1  UNL1       -0.2645
     11 H          62.1384   87.4255   12.2168 H       1  UNL1        0.1566
     12 C          61.4486   87.3428   10.1641 C.ar    1  UNL1        0.1367
     13 C          62.2414   86.4106    9.2968 C.ar    1  UNL1        0.0641
     14 C          61.6136   85.8055    8.0763 C.ar    1  UNL1        0.1445
     15 F          62.4064   84.8732    7.2089 F       1  UNL1       -0.2040
     16 C          60.1929   86.1326    7.7231 C.ar    1  UNL1        0.0504
     17 C          59.4001   87.0648    8.5905 C.ar    1  UNL1        0.1026
     18 N          60.0279   87.6699    9.8110 N.ar    1  UNL1       -0.2289
     19 O          65.7396   92.8857   13.5045 O.3     1  UNL1       -0.4502
     20 C          66.3779   93.1827   12.1800 C.ar    1  UNL1        0.1835
     21 C          65.9802   94.4096   11.4140 C.ar    1  UNL1        0.1396
     22 N          66.6185   94.7065   10.0895 N.ar    1  UNL1       -0.2192
     23 C          67.6545   93.7766    9.5309 C.ar    1  UNL1        0.1991
     24 N          68.0522   92.5497   10.2968 N.ar    1  UNL1       -0.2192
     25 C          67.4139   92.2528   11.6214 C.ar    1  UNL1        0.1396
@<TRIPOS>BOND
     1     1     2    1
     2     2     3   ar
     3     3     4   ar
     4     4    19    1
     5    19    20    1
     6    20    21   ar
     7    21    22   ar
     8    22    23   ar
     9    23    24   ar
    10    24    25   ar
    11     4     5   ar
    12     5     6   ar
    13     6     8    1
    14     8     9    2
    15     8    10   am
    16    10    12    1
    17    12    13   ar
    18    13    14   ar
    19    14    15    1
    20    14    16   ar
    21    16    17   ar
    22    17    18   ar
    23     6     7   ar
    24     7     2   ar
    25    25    20   ar
    26    18    12   ar
    27    10    11    1
@<TRIPOS>MOLECULE
*****
 25 27 0 0 0
SMALL
GASTEIGER

@<TRIPOS>ATOM
      1 C          62.6501   90.8791   10.2094 C.3     1  UNL1        0.0522
      2 C          63.1243   90.3309   11.5227 C.ar    1  UNL1        0.0625
      3 C          63.6455   91.2598   12.5789 C.ar    1  UNL1        0.0522
      4 C          64.1197   90.7117   13.8921 C.ar    1  UNL1        0.1483
      5 C          64.0727   89.2347   14.1493 C.ar    1  UNL1        0.0612
      6 C          63.5516   88.3058   13.0931 C.ar    1  UNL1        0.1374
      7 N          63.0774   88.8539   11.7798 N.ar    1  UNL1       -0.2449
      8 C          63.5046   86.8287   13.3502 C.2     1  UNL1        0.2684
      9 O          64.1966   86.2540   14.5506 O.2     1  UNL1       -0.2681
     10 N          62.7656   85.9264   12.4070 N.am    1  UNL1       -0.2645
     11 H          62.3114   86.3036   11.6192 H       1  UNL1        0.1566
     12 C          62.7186   84.4493   12.6641 C.ar    1  UNL1        0.1367
     13 C          62.9219   83.4844   11.5338 C.ar    1  UNL1        0.0641
     14 C          62.8749   82.0074   11.7909 C.ar    1  UNL1        0.1445
     15 F          63.0781   81.0425   10.6606 F       1  UNL1       -0.2040
     16 C          62.6246   81.4952   13.1784 C.ar    1  UNL1        0.0504
     17 C          62.4213   82.4601   14.3087 C.ar    1  UNL1        0.1026
     18 N          62.4683   83.9371   14.0516 N.ar    1  UNL1       -0.2289
     19 O          64.6409   91.6407   14.9483 O.3     1  UNL1       -0.4502
     20 C          66.0859   92.0430   14.9465 C.ar    1  UNL1        0.1835
     21 C          66.9395   91.7680   13.7441 C.ar    1  UNL1        0.1396
     22 N          68.3846   92.1703   13.7423 N.ar    1  UNL1       -0.2192
     23 C          68.9760   92.8477   14.9430 C.ar    1  UNL1        0.1991
     24 N          68.1224   93.1226   16.1453 N.ar    1  UNL1       -0.2192
     25 C          66.6774   92.7203   16.1471 C.ar    1  UNL1        0.1396
@<TRIPOS>BOND
     1     1     2    1
     2     2     3   ar
     3     3     4   ar
     4     4    19    1
     5    19    20    1
     6    20    21   ar
     7    21    22   ar
     8    22    23   ar
     9    23    24   ar
    10    24    25   ar
    11     4     5   ar
    12     5     6   ar
    13     6     8    1
    14     8     9    2
    15     8    10   am
    16    10    12    1
    17    12    13   ar
    18    13    14   ar
    19    14    15    1
    20    14    16   ar
    21    16    17   ar
    22    17    18   ar
    23     6     7   ar
    24     7     2   ar
    25    25    20   ar
    26    18    12   ar
    27    10    11    1
@<TRIPOS>MOLECULE
*****
 25 27 0 0 0
SMALL
GASTEIGER

@<TRIPOS>ATOM
      1 C          64.6978   86.7097   15.3884 C.3     1  UNL1        0.0522
      2 C          64.2982   87.8344   14.4798 C.ar    1  UNL1        0.0625
      3 C          64.6475   89.2484   14.8383 C.ar    1  UNL1        0.0522
      4 C          64.2479   90.3731   13.9298 C.ar    1  UNL1        0.1483
      5 C          63.4990   90.0837   12.6627 C.ar    1  UNL1        0.0612
      6 C          63.1498   88.6697   12.3042 C.ar    1  UNL1        0.1374
      7 N          63.5494   87.5451   13.2128 N.ar    1  UNL1       -0.2449
      8 C          62.4008   88.3803   11.0371 C.2     1  UNL1        0.2684
      9 O          62.2300   89.4551   10.0048 O.2     1  UNL1       -0.2681
     10 N          61.8228   87.0163   10.8024 N.am    1  UNL1       -0.2645
     11 H          61.9350   86.3109   11.4800 H       1  UNL1        0.1566
     12 C          61.0739   86.7269    9.5353 C.ar    1  UNL1        0.1367
     13 C          61.6733   85.8223    8.4998 C.ar    1  UNL1        0.0641
     14 C          60.9244   85.5330    7.2328 C.ar    1  UNL1        0.1445
     15 F          61.5238   84.6284    6.1971 F       1  UNL1       -0.2040
     16 C          59.5761   86.1482    7.0013 C.ar    1  UNL1        0.0504
     17 C          58.9767   87.0527    8.0369 C.ar    1  UNL1        0.1026
     18 N          59.7256   87.3420    9.3039 N.ar    1  UNL1       -0.2289
     19 O          64.5973   91.7871   14.2883 O.3     1  UNL1       -0.4502
     20 C          66.0208   92.1561   14.5840 C.ar    1  UNL1        0.1835
     21 C          67.0785   91.9622   13.5381 C.ar    1  UNL1        0.1396
     22 N          68.5021   92.3311   13.8338 N.ar    1  UNL1       -0.2192
     23 C          68.8679   92.8939   15.1753 C.ar    1  UNL1        0.1991
     24 N          67.8102   93.0878   16.2210 N.ar    1  UNL1       -0.2192
     25 C          66.3866   92.7189   15.9254 C.ar    1  UNL1        0.1396
@<TRIPOS>BOND
     1     1     2    1
     2     2     3   ar
     3     3     4   ar
     4     4    19    1
     5    19    20    1
     6    20    21   ar
     7    21    22   ar
     8    22    23   ar
     9    23    24   ar
    10    24    25   ar
    11     4     5   ar
    12     5     6   ar
    13     6     8    1
    14     8     9    2
    15     8    10   am
    16    10    12    1
    17    12    13   ar
    18    13    14   ar
    19    14    15    1
    20    14    16   ar
    21    16    17   ar
    22    17    18   ar
    23     6     7   ar
    24     7     2   ar
    25    25    20   ar
    26    18    12   ar
    27    10    11    1
@<TRIPOS>MOLECULE
*****
 25 27 0 0 0
SMALL
GASTEIGER

@<TRIPOS>ATOM
      1 C          58.8543   90.8373   11.7016 C.3     1  UNL1        0.0522
      2 C          60.1724   90.2030   11.3695 C.ar    1  UNL1        0.0625
      3 C          61.3296   91.0571   10.9439 C.ar    1  UNL1        0.0522
      4 C          62.6478   90.4229   10.6118 C.ar    1  UNL1        0.1483
      5 C          62.8086   88.9345   10.7053 C.ar    1  UNL1        0.0612
      6 C          61.6513   88.0804   11.1309 C.ar    1  UNL1        0.1374
      7 N          60.3332   88.7146   11.4630 N.ar    1  UNL1       -0.2449
      8 C          61.8122   86.5919   11.2245 C.2     1  UNL1        0.2684
      9 O          61.1161   85.6990   10.2404 O.2     1  UNL1       -0.2681
     10 N          62.6690   85.9964   12.3020 N.am    1  UNL1       -0.2645
     11 H          63.1258   86.5824   12.9479 H       1  UNL1        0.1566
     12 C          62.8298   84.5079   12.3956 C.ar    1  UNL1        0.1367
     13 C          63.2734   83.7246   11.1958 C.ar    1  UNL1        0.0641
     14 C          63.4342   82.2362   11.2893 C.ar    1  UNL1        0.1445
     15 F          63.8779   81.4528   10.0895 F       1  UNL1       -0.2040
     16 C          63.1513   81.5311   12.5827 C.ar    1  UNL1        0.0504
     17 C          62.7077   82.3144   13.7825 C.ar    1  UNL1        0.1026
     18 N          62.5469   83.8028   13.6889 N.ar    1  UNL1       -0.2289
     19 O          63.8051   91.2771   10.1862 O.3     1  UNL1       -0.4502
     20 C          64.6494   91.9644   11.2180 C.ar    1  UNL1        0.1835
     21 C          64.4989   91.6095   12.6677 C.ar    1  UNL1        0.1396
     22 N          65.3432   92.2968   13.6996 N.ar    1  UNL1       -0.2192
     23 C          66.3379   93.3390   13.2818 C.ar    1  UNL1        0.1991
     24 N          66.4884   93.6937   11.8322 N.ar    1  UNL1       -0.2192
     25 C          65.6441   93.0064   10.8003 C.ar    1  UNL1        0.1396
@<TRIPOS>BOND
     1     1     2    1
     2     2     3   ar
     3     3     4   ar
     4     4    19    1
     5    19    20    1
     6    20    21   ar
     7    21    22   ar
     8    22    23   ar
     9    23    24   ar
    10    24    25   ar
    11     4     5   ar
    12     5     6   ar
    13     6     8    1
    14     8     9    2
    15     8    10   am
    16    10    12    1
    17    12    13   ar
    18    13    14   ar
    19    14    15    1
    20    14    16   ar
    21    16    17   ar
    22    17    18   ar
    23     6     7   ar
    24     7     2   ar
    25    25    20   ar
    26    18    12   ar
    27    10    11    1
@<TRIPOS>MOLECULE
*****
 25 27 0 0 0
SMALL
GASTEIGER

@<TRIPOS>ATOM
      1 C          62.3692   86.8435   18.3538 C.3     1  UNL1        0.0522
      2 C          63.1127   87.0202   17.0630 C.ar    1  UNL1        0.0625
      3 C          63.6471   85.8224   16.3353 C.ar    1  UNL1        0.0522
      4 C          64.3906   85.9991   15.0445 C.ar    1  UNL1        0.1483
      5 C          64.5997   87.3736   14.4816 C.ar    1  UNL1        0.0612
      6 C          64.0654   88.5714   15.2093 C.ar    1  UNL1        0.1374
      7 N          63.3219   88.3947   16.5000 N.ar    1  UNL1       -0.2449
      8 C          64.2745   89.9460   14.6463 C.2     1  UNL1        0.2684
      9 O          63.1113   90.8819   14.5012 O.2     1  UNL1       -0.2681
     10 N          65.6467   90.3846   14.2285 N.am    1  UNL1       -0.2645
     11 H          66.4101   89.7702   14.3237 H       1  UNL1        0.1566
     12 C          65.8558   91.7591   13.6655 C.ar    1  UNL1        0.1367
     13 C          65.4656   92.0564   12.2480 C.ar    1  UNL1        0.0641
     14 C          65.6747   93.4309   11.6851 C.ar    1  UNL1        0.1445
     15 F          65.2846   93.7282   10.2675 F       1  UNL1       -0.2040
     16 C          66.2740   94.5082   12.5397 C.ar    1  UNL1        0.0504
     17 C          66.6642   94.2109   13.9572 C.ar    1  UNL1        0.1026
     18 N          66.4551   92.8364   14.5201 N.ar    1  UNL1       -0.2289
     19 O          64.9250   84.8012   14.3168 O.3     1  UNL1       -0.4502
     20 C          63.9898   83.7180   13.8672 C.ar    1  UNL1        0.1835
     21 C          63.5734   82.6414   14.8250 C.ar    1  UNL1        0.1396
     22 N          62.6382   81.5582   14.3754 N.ar    1  UNL1       -0.2192
     23 C          62.1194   81.5517   12.9680 C.ar    1  UNL1        0.1991
     24 N          62.5359   82.6283   12.0102 N.ar    1  UNL1       -0.2192
     25 C          63.4710   83.7115   12.4598 C.ar    1  UNL1        0.1396
@<TRIPOS>BOND
     1     1     2    1
     2     2     3   ar
     3     3     4   ar
     4     4    19    1
     5    19    20    1
     6    20    21   ar
     7    21    22   ar
     8    22    23   ar
     9    23    24   ar
    10    24    25   ar
    11     4     5   ar
    12     5     6   ar
    13     6     8    1
    14     8     9    2
    15     8    10   am
    16    10    12    1
    17    12    13   ar
    18    13    14   ar
    19    14    15    1
    20    14    16   ar
    21    16    17   ar
    22    17    18   ar
    23     6     7   ar
    24     7     2   ar
    25    25    20   ar
    26    18    12   ar
    27    10    11    1
@<TRIPOS>MOLECULE
*****
 25 27 0 0 0
SMALL
GASTEIGER

@<TRIPOS>ATOM
      1 C          59.7651   89.0608    7.9951 C.3     1  UNL1        0.0522
      2 C          60.6425   88.7927    9.1819 C.ar    1  UNL1        0.0625
      3 C          60.5825   87.4633    9.8739 C.ar    1  UNL1        0.0522
      4 C          61.4598   87.1952   11.0606 C.ar    1  UNL1        0.1483
      5 C          62.3972   88.2565   11.5554 C.ar    1  UNL1        0.0612
      6 C          62.4572   89.5860   10.8634 C.ar    1  UNL1        0.1374
      7 N          61.5799   89.8541    9.6766 N.ar    1  UNL1       -0.2449
      8 C          63.3946   90.6474   11.3581 C.2     1  UNL1        0.2684
      9 O          63.7558   91.8018   10.4710 O.2     1  UNL1       -0.2681
     10 N          63.9709   90.5544   12.7398 N.am    1  UNL1       -0.2645
     11 H          63.7339   89.7967   13.3220 H       1  UNL1        0.1566
     12 C          64.9083   91.6158   13.2345 C.ar    1  UNL1        0.1367
     13 C          65.3775   91.5974   14.6591 C.ar    1  UNL1        0.0641
     14 C          66.3149   92.6588   15.1538 C.ar    1  UNL1        0.1445
     15 F          66.7842   92.6403   16.5784 F       1  UNL1       -0.2040
     16 C          66.7831   93.7386   14.2239 C.ar    1  UNL1        0.0504
     17 C          66.3138   93.7571   12.7993 C.ar    1  UNL1        0.1026
     18 N          65.3765   92.6957   12.3046 N.ar    1  UNL1       -0.2289
     19 O          61.3997   85.8657   11.7527 O.3     1  UNL1       -0.4502
     20 C          62.4893   84.8576   11.5362 C.ar    1  UNL1        0.1835
     21 C          63.1457   84.1984   12.7130 C.ar    1  UNL1        0.1396
     22 N          64.2352   83.1904   12.4966 N.ar    1  UNL1       -0.2192
     23 C          64.6683   82.8416   11.1034 C.ar    1  UNL1        0.1991
     24 N          64.0119   83.5008    9.9267 N.ar    1  UNL1       -0.2192
     25 C          62.9224   84.5088   10.1432 C.ar    1  UNL1        0.1396
@<TRIPOS>BOND
     1     1     2    1
     2     2     3   ar
     3     3     4   ar
     4     4    19    1
     5    19    20    1
     6    20    21   ar
     7    21    22   ar
     8    22    23   ar
     9    23    24   ar
    10    24    25   ar
    11     4     5   ar
    12     5     6   ar
    13     6     8    1
    14     8     9    2
    15     8    10   am
    16    10    12    1
    17    12    13   ar
    18    13    14   ar
    19    14    15    1
    20    14    16   ar
    21    16    17   ar
    22    17    18   ar
    23     6     7   ar
    24     7     2   ar
    25    25    20   ar
    26    18    12   ar
    27    10    11    1
@<TRIPOS>MOLECULE
*****
 25 27 0 0 0
SMALL
GASTEIGER

@<TRIPOS>ATOM
      1 C          65.8622   93.0598   12.6801 C.3     1  UNL1        0.0522
      2 C          64.9827   91.8717   12.9346 C.ar    1  UNL1        0.0625
      3 C          64.8741   91.3016   14.3178 C.ar    1  UNL1        0.0522
      4 C          63.9946   90.1135   14.5723 C.ar    1  UNL1        0.1483
      5 C          63.2236   89.4955   13.4437 C.ar    1  UNL1        0.0612
      6 C          63.3322   90.0657   12.0606 C.ar    1  UNL1        0.1374
      7 N          64.2117   91.2538   11.8061 N.ar    1  UNL1       -0.2449
      8 C          62.5612   89.4477   10.9320 C.2     1  UNL1        0.2684
      9 O          62.1151   90.2939    9.7766 O.2     1  UNL1       -0.2681
     10 N          62.2363   87.9836   10.9587 N.am    1  UNL1       -0.2645
     11 H          62.5291   87.4282   11.7170 H       1  UNL1        0.1566
     12 C          61.4654   87.3656    9.8301 C.ar    1  UNL1        0.1367
     13 C          62.1308   86.3753    8.9209 C.ar    1  UNL1        0.0641
     14 C          61.3598   85.7574    7.7924 C.ar    1  UNL1        0.1445
     15 F          62.0252   84.7671    6.8832 F       1  UNL1       -0.2040
     16 C          59.9234   86.1298    7.5729 C.ar    1  UNL1        0.0504
     17 C          59.2580   87.1201    8.4820 C.ar    1  UNL1        0.1026
     18 N          60.0290   87.7380    9.6106 N.ar    1  UNL1       -0.2289
     19 O          63.8860   89.5433   15.9555 O.3     1  UNL1       -0.4502
     20 C          63.4921   88.1086   16.1466 C.ar    1  UNL1        0.1835
     21 C          62.4874   87.7403   17.1977 C.ar    1  UNL1        0.1396
     22 N          62.0935   86.3056   17.3888 N.ar    1  UNL1       -0.2192
     23 C          62.7043   85.2392   16.5286 C.ar    1  UNL1        0.1991
     24 N          63.7090   85.6076   15.4775 N.ar    1  UNL1       -0.2192
     25 C          64.1029   87.0423   15.2865 C.ar    1  UNL1        0.1396
@<TRIPOS>BOND
     1     1     2    1
     2     2     3   ar
     3     3     4   ar
     4     4    19    1
     5    19    20    1
     6    20    21   ar
     7    21    22   ar
     8    22    23   ar
     9    23    24   ar
    10    24    25   ar
    11     4     5   ar
    12     5     6   ar
    13     6     8    1
    14     8     9    2
    15     8    10   am
    16    10    12    1
    17    12    13   ar
    18    13    14   ar
    19    14    15    1
    20    14    16   ar
    21    16    17   ar
    22    17    18   ar
    23     6     7   ar
    24     7     2   ar
    25    25    20   ar
    26    18    12   ar
    27    10    11    1
@<TRIPOS>MOLECULE
*****
 25 27 0 0 0
SMALL
GASTEIGER

@<TRIPOS>ATOM
      1 C          64.7893   86.9041   14.9786 C.3     1  UNL1        0.0522
      2 C          64.2962   88.1413   14.2886 C.ar    1  UNL1        0.0625
      3 C          64.7705   89.4910   14.7393 C.ar    1  UNL1        0.0522
      4 C          64.2774   90.7283   14.0493 C.ar    1  UNL1        0.1483
      5 C          63.3100   90.6158   12.9086 C.ar    1  UNL1        0.0612
      6 C          62.8356   89.2661   12.4578 C.ar    1  UNL1        0.1374
      7 N          63.3287   88.0289   13.1478 N.ar    1  UNL1       -0.2449
      8 C          61.8681   89.1536   11.3171 C.2     1  UNL1        0.2684
      9 O          60.8775   90.2508   11.0628 O.2     1  UNL1       -0.2681
     10 N          61.8913   87.9438   10.4306 N.am    1  UNL1       -0.2645
     11 H          62.5415   87.2236   10.5974 H       1  UNL1        0.1566
     12 C          60.9238   87.8313    9.2898 C.ar    1  UNL1        0.1367
     13 C          60.5176   89.0574    8.5271 C.ar    1  UNL1        0.0641
     14 C          59.5501   88.9448    7.3864 C.ar    1  UNL1        0.1445
     15 F          59.1439   90.1709    6.6236 F       1  UNL1       -0.2040
     16 C          58.9888   87.6061    7.0083 C.ar    1  UNL1        0.0504
     17 C          59.3950   86.3800    7.7710 C.ar    1  UNL1        0.1026
     18 N          60.3625   86.4926    8.9117 N.ar    1  UNL1       -0.2289
     19 O          64.7518   92.0780   14.5001 O.3     1  UNL1       -0.4502
     20 C          66.2151   92.3236   14.7205 C.ar    1  UNL1        0.1835
     21 C          66.7063   92.7704   16.0656 C.ar    1  UNL1        0.1396
     22 N          68.1696   93.0160   16.2860 N.ar    1  UNL1       -0.2192
     23 C          69.1416   92.8148   15.1613 C.ar    1  UNL1        0.1991
     24 N          68.6503   92.3680   13.8163 N.ar    1  UNL1       -0.2192
     25 C          67.1871   92.1224   13.5959 C.ar    1  UNL1        0.1396
@<TRIPOS>BOND
     1     1     2    1
     2     2     3   ar
     3     3     4   ar
     4     4    19    1
     5    19    20    1
     6    20    21   ar
     7    21    22   ar
     8    22    23   ar
     9    23    24   ar
    10    24    25   ar
    11     4     5   ar
    12     5     6   ar
    13     6     8    1
    14     8     9    2
    15     8    10   am
    16    10    12    1
    17    12    13   ar
    18    13    14   ar
    19    14    15    1
    20    14    16   ar
    21    16    17   ar
    22    17    18   ar
    23     6     7   ar
    24     7     2   ar
    25    25    20   ar
    26    18    12   ar
    27    10    11    1
@<TRIPOS>MOLECULE
*****
 25 27 0 0 0
SMALL
GASTEIGER

@<TRIPOS>ATOM
      1 C          59.0060   87.9330    7.4412 C.3     1  UNL1        0.0522
      2 C          60.0625   88.0162    8.5027 C.ar    1  UNL1        0.0625
      3 C          60.5190   89.3545    9.0032 C.ar    1  UNL1        0.0522
      4 C          61.5756   89.4377   10.0647 C.ar    1  UNL1        0.1483
      5 C          62.1756   88.1827   10.6257 C.ar    1  UNL1        0.0612
      6 C          61.7190   86.8444   10.1252 C.ar    1  UNL1        0.1374
      7 N          60.6625   86.7612    9.0637 N.ar    1  UNL1       -0.2449
      8 C          62.3191   85.5892   10.6862 C.2     1  UNL1        0.2684
      9 O          63.1555   84.7022    9.8124 O.2     1  UNL1       -0.2681
     10 N          62.0827   85.2212   12.1210 N.am    1  UNL1       -0.2645
     11 H          61.5337   85.8034   12.6945 H       1  UNL1        0.1566
     12 C          62.6827   83.9660   12.6820 C.ar    1  UNL1        0.1367
     13 C          62.4154   82.6464   12.0208 C.ar    1  UNL1        0.0641
     14 C          63.0154   81.3914   12.5819 C.ar    1  UNL1        0.1445
     15 F          62.7482   80.0717   11.9207 F       1  UNL1       -0.2040
     16 C          63.8827   81.4559   13.8040 C.ar    1  UNL1        0.0504
     17 C          64.1499   82.7755   14.4652 C.ar    1  UNL1        0.1026
     18 N          63.5499   84.0306   13.9042 N.ar    1  UNL1       -0.2289
     19 O          62.0321   90.7761   10.5652 O.3     1  UNL1       -0.4502
     20 C          63.0038   90.8590   11.7048 C.ar    1  UNL1        0.1835
     21 C          64.2630   91.6613   11.5600 C.ar    1  UNL1        0.1396
     22 N          65.2347   91.7442   12.6996 N.ar    1  UNL1       -0.2192
     23 C          64.9473   91.0249   13.9842 C.ar    1  UNL1        0.1991
     24 N          63.6882   90.2227   14.1290 N.ar    1  UNL1       -0.2192
     25 C          62.7165   90.1397   12.9893 C.ar    1  UNL1        0.1396
@<TRIPOS>BOND
     1     1     2    1
     2     2     3   ar
     3     3     4   ar
     4     4    19    1
     5    19    20    1
     6    20    21   ar
     7    21    22   ar
     8    22    23   ar
     9    23    24   ar
    10    24    25   ar
    11     4     5   ar
    12     5     6   ar
    13     6     8    1
    14     8     9    2
    15     8    10   am
    16    10    12    1
    17    12    13   ar
    18    13    14   ar
    19    14    15    1
    20    14    16   ar
    21    16    17   ar
    22    17    18   ar
    23     6     7   ar
    24     7     2   ar
    25    25    20   ar
    26    18    12   ar
    27    10    11    1
