@<TRIPOS>MOLECULE
*****
 40 44 0 0 0
SMALL
GASTEIGER

@<TRIPOS>ATOM
      1 C          63.7544   83.0839   11.9421 C.3     1  UNL1        0.0963
      2 C          63.9839   81.8312   12.7345 C.3     1  UNL1        0.0126
      3 C          64.1450   81.9048   14.2240 C.3     1  UNL1        0.0220
      4 C          64.0766   83.2312   14.9211 C.3     1  UNL1        0.0922
      5 N          63.8471   84.4840   14.1287 N.pl3   1  UNL1       -0.2926
      6 C          63.6860   84.4104   12.6392 C.3     1  UNL1        0.1012
      7 C          63.7787   85.8104   14.8258 C.ar    1  UNL1        0.1361
      8 C          64.1735   87.0613   14.0983 C.ar    1  UNL1        0.0686
      9 C          64.1051   88.3877   14.7954 C.ar    1  UNL1        0.1362
     10 N          63.6420   88.4632   16.2201 N.ar    1  UNL1       -0.2083
     11 C          63.2472   87.2123   16.9477 C.ar    1  UNL1        0.2374
     12 N          63.3156   85.8858   16.2505 N.ar    1  UNL1       -0.2083
     13 N          64.4999   89.6386   14.0678 N.pl3   1  UNL1       -0.2903
     14 C          63.7307   90.0763   12.8567 C.3     1  UNL1        0.1095
     15 C          64.1255   91.3272   12.1292 C.3     1  UNL1        0.0939
     16 N          65.2894   92.1404   12.6127 N.3     1  UNL1       -0.2668
     17 C          66.0587   91.7028   13.8238 C.3     1  UNL1        0.0939
     18 C          65.6639   90.4518   14.5514 C.3     1  UNL1        0.1095
     19 C          65.6842   93.3914   11.8851 C.3     1  UNL1        0.1173
     20 C          65.6705   93.8340   10.4520 C.3     1  UNL1        0.1606
     21 O          66.2424   95.1604   10.8562 O.3     1  UNL1       -0.3507
     22 C          66.2562   94.7178   12.2893 C.3     1  UNL1        0.1606
     23 C          62.7841   87.2877   18.3724 C.3     1  UNL1        0.4524
     24 F          62.3210   87.3632   19.7972 F       1  UNL1       -0.1632
     25 F          63.2196   88.7216   18.4380 F       1  UNL1       -0.1632
     26 F          62.3486   85.8538   18.3068 F       1  UNL1       -0.1632
     27 N          63.2692   84.2490    9.6711 N.am    1  UNL1       -0.3040
     28 C          63.5933   83.0103   10.4526 C.2     1  UNL1        0.2237
     29 O          63.7563   81.6980    9.7446 O.2     1  UNL1       -0.2751
     30 H          63.1622   85.1103   10.1359 H       1  UNL1        0.1494
     31 C          63.1081   84.1754    8.1816 C.3     1  UNL1        0.0941
     32 C          62.2347   85.1669    7.4718 C.3     1  UNL1        0.0476
     33 C          60.4573   88.6259    9.7360 C.ar    1  UNL1        0.0684
     34 C          59.6180   87.8598    8.7569 C.ar    1  UNL1        0.0100
     35 C          60.2105   86.7068    8.0022 C.ar    1  UNL1       -0.0035
     36 C          61.6422   86.3199    8.2265 C.ar    1  UNL1       -0.0204
     37 C          62.4815   87.0861    9.2055 C.ar    1  UNL1       -0.0035
     38 C          61.8891   88.2391    9.9603 C.ar    1  UNL1        0.0100
     39 N          59.2724   90.9319   11.2454 N.1     1  UNL1       -0.1908
     40 C          59.8649   89.7789   10.4907 C.1     1  UNL1        0.1004
@<TRIPOS>BOND
     1    39    40    3
     2    40    33    1
     3    33    34   ar
     4    34    35   ar
     5    35    36   ar
     6    36    32    1
     7    32    31    1
     8    31    27    1
     9    27    28   am
    10    28    29    2
    11     1    28    1
    12     1     2    1
    13     2     3    1
    14     3     4    1
    15     4     5    1
    16     5     7    1
    17     7     8   ar
    18     8     9   ar
    19     9    13    1
    20    13    14    1
    21    14    15    1
    22    15    16    1
    23    16    19    1
    24    19    20    1
    25    20    21    1
    26    21    22    1
    27    16    17    1
    28    17    18    1
    29     9    10   ar
    30    10    11   ar
    31    11    23    1
    32    23    24    1
    33    23    25    1
    34    23    26    1
    35    11    12   ar
    36     5     6    1
    37    36    37   ar
    38    37    38   ar
    39    38    33   ar
    40     6     1    1
    41    12     7   ar
    42    18    13    1
    43    22    19    1
    44    27    30    1
@<TRIPOS>MOLECULE
*****
 40 44 0 0 0
SMALL
GASTEIGER

@<TRIPOS>ATOM
      1 C          63.0449   84.1783    9.9886 C.3     1  UNL1        0.0963
      2 C          62.7801   84.1241    8.5132 C.3     1  UNL1        0.0126
      3 C          62.2764   85.3416    7.7963 C.3     1  UNL1        0.0220
      4 C          62.0374   86.6133    8.5548 C.3     1  UNL1        0.0922
      5 N          62.3022   86.6677   10.0303 N.pl3   1  UNL1       -0.2926
      6 C          62.8059   85.4502   10.7472 C.3     1  UNL1        0.1012
      7 C          62.0632   87.9395   10.7889 C.ar    1  UNL1        0.1361
      8 C          63.2102   88.6465   11.4479 C.ar    1  UNL1        0.0686
      9 C          62.9713   89.9183   12.2064 C.ar    1  UNL1        0.1362
     10 N          61.5852   90.4831   12.3060 N.ar    1  UNL1       -0.2083
     11 C          60.4381   89.7760   11.6469 C.ar    1  UNL1        0.2374
     12 N          60.6771   88.5042   10.8884 N.ar    1  UNL1       -0.2083
     13 N          64.1183   90.6254   12.8654 N.pl3   1  UNL1       -0.2903
     14 C          64.6262   90.1530   14.1954 C.3     1  UNL1        0.1095
     15 C          65.7732   90.8601   14.8544 C.3     1  UNL1        0.0939
     16 N          66.4125   92.0395   14.1834 N.3     1  UNL1       -0.2668
     17 C          65.9046   92.5120   12.8534 C.3     1  UNL1        0.0939
     18 C          64.7576   91.8049   12.1944 C.3     1  UNL1        0.1095
     19 C          67.5595   92.7466   14.8425 C.3     1  UNL1        0.1173
     20 C          69.0539   92.6709   14.7369 C.3     1  UNL1        0.1606
     21 O          69.1817   93.7465   15.7744 O.3     1  UNL1       -0.3507
     22 C          67.6874   93.8224   15.8800 C.3     1  UNL1        0.1606
     23 C          59.0521   90.3407   11.7465 C.3     1  UNL1        0.4524
     24 F          57.6659   90.9054   11.8460 F       1  UNL1       -0.1632
     25 F          58.5789   89.0672   12.3822 F       1  UNL1       -0.1632
     26 F          59.5253   91.6142   11.1107 F       1  UNL1       -0.1632
     27 N          62.5816   82.0362   11.3839 N.am    1  UNL1       -0.3040
     28 C          63.5486   82.9608   10.7055 C.2     1  UNL1        0.2237
     29 O          65.0192   82.6680   10.7441 O.2     1  UNL1       -0.2751
     30 H          61.6164   82.2284   11.3585 H       1  UNL1        0.1494
     31 C          63.0853   80.8186   12.1008 C.3     1  UNL1        0.0941
     32 C          63.5336   80.9208   13.5285 C.3     1  UNL1        0.0476
     33 C          63.3258   84.8704   15.6750 C.ar    1  UNL1        0.0684
     34 C          64.5947   84.4536   14.9924 C.ar    1  UNL1        0.0100
     35 C          64.6640   83.1371   14.2769 C.ar    1  UNL1       -0.0035
     36 C          63.4643   82.2373   14.2440 C.ar    1  UNL1       -0.0204
     37 C          62.1954   82.6541   14.9267 C.ar    1  UNL1       -0.0035
     38 C          62.1261   83.9706   15.6422 C.ar    1  UNL1        0.0100
     39 N          63.1873   87.5035   17.1060 N.1     1  UNL1       -0.1908
     40 C          63.2566   86.1869   16.3905 C.1     1  UNL1        0.1004
@<TRIPOS>BOND
     1    39    40    3
     2    40    33    1
     3    33    34   ar
     4    34    35   ar
     5    35    36   ar
     6    36    32    1
     7    32    31    1
     8    31    27    1
     9    27    28   am
    10    28    29    2
    11     1    28    1
    12     1     2    1
    13     2     3    1
    14     3     4    1
    15     4     5    1
    16     5     7    1
    17     7     8   ar
    18     8     9   ar
    19     9    13    1
    20    13    14    1
    21    14    15    1
    22    15    16    1
    23    16    19    1
    24    19    20    1
    25    20    21    1
    26    21    22    1
    27    16    17    1
    28    17    18    1
    29     9    10   ar
    30    10    11   ar
    31    11    23    1
    32    23    24    1
    33    23    25    1
    34    23    26    1
    35    11    12   ar
    36     5     6    1
    37    36    37   ar
    38    37    38   ar
    39    38    33   ar
    40     6     1    1
    41    12     7   ar
    42    18    13    1
    43    22    19    1
    44    27    30    1
@<TRIPOS>MOLECULE
*****
 40 44 0 0 0
SMALL
GASTEIGER

@<TRIPOS>ATOM
      1 C          64.1196   87.7465   15.0256 C.3     1  UNL1        0.0963
      2 C          62.9709   88.0329   15.9467 C.3     1  UNL1        0.0126
      3 C          62.7657   89.4194   16.4811 C.3     1  UNL1        0.0220
      4 C          63.7093   90.5194   16.0945 C.3     1  UNL1        0.0922
      5 N          64.8581   90.2330   15.1734 N.pl3   1  UNL1       -0.2926
      6 C          65.0632   88.8466   14.6389 C.3     1  UNL1        0.1012
      7 C          65.8016   91.3331   14.7867 C.ar    1  UNL1        0.1361
      8 C          65.6484   92.0220   13.4631 C.ar    1  UNL1        0.0686
      9 C          66.5919   93.1221   13.0765 C.ar    1  UNL1        0.1362
     10 N          67.6888   93.5332   14.0134 N.ar    1  UNL1       -0.2083
     11 C          67.8421   92.8443   15.3370 C.ar    1  UNL1        0.2374
     12 N          66.8984   91.7442   15.7237 N.ar    1  UNL1       -0.2083
     13 N          66.4387   93.8110   11.7529 N.pl3   1  UNL1       -0.2903
     14 C          66.8660   93.1184   10.4929 C.3     1  UNL1        0.1095
     15 C          66.7128   93.8073    9.1693 C.3     1  UNL1        0.0939
     16 N          66.1321   95.1888    9.1057 N.3     1  UNL1       -0.2668
     17 C          65.7047   95.8816   10.3657 C.3     1  UNL1        0.0939
     18 C          65.8580   95.1926   11.6893 C.3     1  UNL1        0.1095
     19 C          65.9789   95.8778    7.7821 C.3     1  UNL1        0.1173
     20 C          64.9956   96.8492    7.1995 C.3     1  UNL1        0.1606
     21 O          65.7621   96.8521    5.9103 O.3     1  UNL1       -0.3507
     22 C          66.7455   95.8807    6.4928 C.3     1  UNL1        0.1606
     23 C          68.9389   93.2554   16.2740 C.3     1  UNL1        0.4524
     24 F          70.0358   93.6666   17.2110 F       1  UNL1       -0.1632
     25 F          68.7778   94.6812   15.8369 F       1  UNL1       -0.1632
     26 F          69.1000   91.8296   16.7110 F       1  UNL1       -0.1632
     27 N          63.4272   85.8320   13.4115 N.am    1  UNL1       -0.3040
     28 C          64.3247   86.3600   14.4912 C.2     1  UNL1        0.2237
     29 O          65.4273   85.5016   15.0364 O.2     1  UNL1       -0.2751
     30 H          62.7035   86.3955   13.0536 H       1  UNL1        0.1494
     31 C          63.6323   84.4455   12.8770 C.3     1  UNL1        0.0941
     32 C          63.3949   84.1591   11.4239 C.3     1  UNL1        0.0476
     33 C          60.8799   86.9615    8.9598 C.ar    1  UNL1        0.0684
     34 C          61.9532   86.1440    8.3044 C.ar    1  UNL1        0.0100
     35 C          62.7915   85.2099    9.1257 C.ar    1  UNL1       -0.0035
     36 C          62.5565   85.0932   10.6026 C.ar    1  UNL1       -0.0204
     37 C          61.4832   85.9107   11.2581 C.ar    1  UNL1       -0.0035
     38 C          60.6449   86.8448   10.4367 C.ar    1  UNL1        0.0100
     39 N          59.2032   88.8297    7.3171 N.1     1  UNL1       -0.1908
     40 C          60.0416   87.8956    8.1385 C.1     1  UNL1        0.1004
@<TRIPOS>BOND
     1    39    40    3
     2    40    33    1
     3    33    34   ar
     4    34    35   ar
     5    35    36   ar
     6    36    32    1
     7    32    31    1
     8    31    27    1
     9    27    28   am
    10    28    29    2
    11     1    28    1
    12     1     2    1
    13     2     3    1
    14     3     4    1
    15     4     5    1
    16     5     7    1
    17     7     8   ar
    18     8     9   ar
    19     9    13    1
    20    13    14    1
    21    14    15    1
    22    15    16    1
    23    16    19    1
    24    19    20    1
    25    20    21    1
    26    21    22    1
    27    16    17    1
    28    17    18    1
    29     9    10   ar
    30    10    11   ar
    31    11    23    1
    32    23    24    1
    33    23    25    1
    34    23    26    1
    35    11    12   ar
    36     5     6    1
    37    36    37   ar
    38    37    38   ar
    39    38    33   ar
    40     6     1    1
    41    12     7   ar
    42    18    13    1
    43    22    19    1
    44    27    30    1
@<TRIPOS>MOLECULE
*****
 40 44 0 0 0
SMALL
GASTEIGER

@<TRIPOS>ATOM
      1 C          63.6337   88.1120   15.7316 C.3     1  UNL1        0.0963
      2 C          63.7484   87.1125   16.8441 C.3     1  UNL1        0.0126
      3 C          63.5984   85.6482   16.5553 C.3     1  UNL1        0.0220
      4 C          63.3337   85.1835   15.1539 C.3     1  UNL1        0.0922
      5 N          63.2190   86.1830   14.0413 N.pl3   1  UNL1       -0.2926
      6 C          63.3690   87.6473   14.3301 C.3     1  UNL1        0.1012
      7 C          62.9542   85.7182   12.6399 C.ar    1  UNL1        0.1361
      8 C          62.2249   86.6099   11.6792 C.ar    1  UNL1        0.0686
      9 C          61.9601   86.1451   10.2778 C.ar    1  UNL1        0.1362
     10 N          62.4248   84.7886    9.8371 N.ar    1  UNL1       -0.2083
     11 C          63.1541   83.8970   10.7979 C.ar    1  UNL1        0.2374
     12 N          63.4188   84.3618   12.1993 N.ar    1  UNL1       -0.2083
     13 N          61.2308   87.0368    9.3171 N.pl3   1  UNL1       -0.2903
     14 C          60.4675   86.4403    8.1720 C.3     1  UNL1        0.1095
     15 C          59.7381   87.3319    7.2112 C.3     1  UNL1        0.0939
     16 N          59.7721   88.8201    7.3957 N.3     1  UNL1       -0.2668
     17 C          60.5355   89.4167    8.5409 C.3     1  UNL1        0.0939
     18 C          61.2648   88.5251    9.5016 C.3     1  UNL1        0.1095
     19 C          59.0428   89.7118    6.4349 C.3     1  UNL1        0.1173
     20 C          57.6004   90.0056    6.1465 C.3     1  UNL1        0.1606
     21 O          58.0113   90.9728    5.0763 O.3     1  UNL1       -0.3507
     22 C          59.4537   90.6790    5.3646 C.3     1  UNL1        0.1606
     23 C          63.6187   82.5406   10.3572 C.3     1  UNL1        0.4524
     24 F          64.0834   81.1841    9.9166 F       1  UNL1       -0.1632
     25 F          64.6846   83.1787    9.5167 F       1  UNL1       -0.1632
     26 F          62.5528   81.9024   11.1978 F       1  UNL1       -0.1632
     27 N          64.7203   90.4108   15.1979 N.am    1  UNL1       -0.3040
     28 C          63.7838   89.5763   16.0204 C.2     1  UNL1        0.2237
     29 O          62.9974   90.2060   17.1317 O.2     1  UNL1       -0.2751
     30 H          65.2365   89.9975   14.4685 H       1  UNL1        0.1494
     31 C          64.8704   91.8751   15.4867 C.3     1  UNL1        0.0941
     32 C          66.1406   92.5850   15.1228 C.3     1  UNL1        0.0476
     33 C          67.7736   92.2737   10.9411 C.ar    1  UNL1        0.0684
     34 C          66.4485   92.9340   11.1816 C.ar    1  UNL1        0.0100
     35 C          65.9041   93.0378   12.5755 C.ar    1  UNL1       -0.0035
     36 C          66.6849   92.4812   13.7289 C.ar    1  UNL1       -0.0204
     37 C          68.0101   91.8209   13.4885 C.ar    1  UNL1       -0.0035
     38 C          68.5544   91.7171   12.0946 C.ar    1  UNL1        0.0100
     39 N          68.8623   92.0661    8.1533 N.1     1  UNL1       -0.1908
     40 C          68.3179   92.1699    9.5472 C.1     1  UNL1        0.1004
@<TRIPOS>BOND
     1    39    40    3
     2    40    33    1
     3    33    34   ar
     4    34    35   ar
     5    35    36   ar
     6    36    32    1
     7    32    31    1
     8    31    27    1
     9    27    28   am
    10    28    29    2
    11     1    28    1
    12     1     2    1
    13     2     3    1
    14     3     4    1
    15     4     5    1
    16     5     7    1
    17     7     8   ar
    18     8     9   ar
    19     9    13    1
    20    13    14    1
    21    14    15    1
    22    15    16    1
    23    16    19    1
    24    19    20    1
    25    20    21    1
    26    21    22    1
    27    16    17    1
    28    17    18    1
    29     9    10   ar
    30    10    11   ar
    31    11    23    1
    32    23    24    1
    33    23    25    1
    34    23    26    1
    35    11    12   ar
    36     5     6    1
    37    36    37   ar
    38    37    38   ar
    39    38    33   ar
    40     6     1    1
    41    12     7   ar
    42    18    13    1
    43    22    19    1
    44    27    30    1
@<TRIPOS>MOLECULE
*****
 40 44 0 0 0
SMALL
GASTEIGER

@<TRIPOS>ATOM
      1 C          59.7073   89.2542    7.0179 C.3     1  UNL1        0.0963
      2 C          58.5455   88.3572    6.7090 C.3     1  UNL1        0.0126
      3 C          58.2918   87.1418    7.5507 C.3     1  UNL1        0.0220
      4 C          59.1999   86.8235    8.7013 C.3     1  UNL1        0.0922
      5 N          60.3618   87.7205    9.0102 N.pl3   1  UNL1       -0.2926
      6 C          60.6155   88.9359    8.1685 C.3     1  UNL1        0.1012
      7 C          61.2700   87.4022   10.1608 C.ar    1  UNL1        0.1361
      8 C          62.0545   88.4963   10.8221 C.ar    1  UNL1        0.0686
      9 C          62.9626   88.1780   11.9727 C.ar    1  UNL1        0.1362
     10 N          63.0863   86.7654   12.4620 N.ar    1  UNL1       -0.2083
     11 C          62.3019   85.6712   11.8007 C.ar    1  UNL1        0.2374
     12 N          61.3937   85.9896   10.6500 N.ar    1  UNL1       -0.2083
     13 N          63.7471   89.2722   12.6340 N.pl3   1  UNL1       -0.2903
     14 C          64.3449   89.0511   13.9918 C.3     1  UNL1        0.1095
     15 C          65.1294   90.1452   14.6531 C.3     1  UNL1        0.0939
     16 N          65.3161   91.4605   13.9567 N.3     1  UNL1       -0.2668
     17 C          64.7182   91.6817   12.5988 C.3     1  UNL1        0.0939
     18 C          63.9338   90.5875   11.9375 C.3     1  UNL1        0.1095
     19 C          66.1006   92.5547   14.6180 C.3     1  UNL1        0.1173
     20 C          66.6759   92.7692   15.9866 C.3     1  UNL1        0.1606
     21 O          67.2100   94.1021   15.5533 O.3     1  UNL1       -0.3507
     22 C          66.6347   93.8878   14.1846 C.3     1  UNL1        0.1606
     23 C          62.4255   84.2587   12.2899 C.3     1  UNL1        0.4524
     24 F          62.5492   82.8460   12.7791 F       1  UNL1       -0.1632
     25 F          62.7462   83.8043   10.8969 F       1  UNL1       -0.1632
     26 F          62.1048   84.7131   13.6830 F       1  UNL1       -0.1632
     27 N          58.8084   91.2870    5.6725 N.am    1  UNL1       -0.3040
     28 C          59.9610   90.4696    6.1761 C.2     1  UNL1        0.2237
     29 O          61.3671   90.8676    5.8381 O.2     1  UNL1       -0.2751
     30 H          57.8855   91.0257    5.8943 H       1  UNL1        0.1494
     31 C          59.0621   92.5023    4.8307 C.3     1  UNL1        0.0941
     32 C          59.2534   92.3623    3.3496 C.3     1  UNL1        0.0476
     33 C          62.9756   93.9724    1.3994 C.ar    1  UNL1        0.0684
     34 C          63.0557   92.7657    2.2868 C.ar    1  UNL1        0.0100
     35 C          61.8150   92.2290    2.9369 C.ar    1  UNL1       -0.0035
     36 C          60.4941   92.8990    2.6996 C.ar    1  UNL1       -0.0204
     37 C          60.4140   94.1056    1.8122 C.ar    1  UNL1       -0.0035
     38 C          61.6547   94.6423    1.1621 C.ar    1  UNL1        0.0100
     39 N          65.4570   95.0457    0.0993 N.1     1  UNL1       -0.1908
     40 C          64.2163   94.5090    0.7494 C.1     1  UNL1        0.1004
@<TRIPOS>BOND
     1    39    40    3
     2    40    33    1
     3    33    34   ar
     4    34    35   ar
     5    35    36   ar
     6    36    32    1
     7    32    31    1
     8    31    27    1
     9    27    28   am
    10    28    29    2
    11     1    28    1
    12     1     2    1
    13     2     3    1
    14     3     4    1
    15     4     5    1
    16     5     7    1
    17     7     8   ar
    18     8     9   ar
    19     9    13    1
    20    13    14    1
    21    14    15    1
    22    15    16    1
    23    16    19    1
    24    19    20    1
    25    20    21    1
    26    21    22    1
    27    16    17    1
    28    17    18    1
    29     9    10   ar
    30    10    11   ar
    31    11    23    1
    32    23    24    1
    33    23    25    1
    34    23    26    1
    35    11    12   ar
    36     5     6    1
    37    36    37   ar
    38    37    38   ar
    39    38    33   ar
    40     6     1    1
    41    12     7   ar
    42    18    13    1
    43    22    19    1
    44    27    30    1
@<TRIPOS>MOLECULE
*****
 40 44 0 0 0
SMALL
GASTEIGER

@<TRIPOS>ATOM
      1 C          59.0259   90.1668    6.0509 C.3     1  UNL1        0.0963
      2 C          57.5418   90.3756    6.1104 C.3     1  UNL1        0.0126
      3 C          56.8675   91.2581    5.1022 C.3     1  UNL1        0.0220
      4 C          57.6774   91.9319    4.0344 C.3     1  UNL1        0.0922
      5 N          59.1616   91.7231    3.9749 N.pl3   1  UNL1       -0.2926
      6 C          59.8359   90.8406    4.9831 C.3     1  UNL1        0.1012
      7 C          59.9715   92.3968    2.9072 C.ar    1  UNL1        0.1361
      8 C          59.3006   92.9061    1.6660 C.ar    1  UNL1        0.0686
      9 C          60.1105   93.5799    0.5983 C.ar    1  UNL1        0.1362
     10 N          61.5914   93.7443    0.7717 N.ar    1  UNL1       -0.2083
     11 C          62.2623   93.2350    2.0128 C.ar    1  UNL1        0.2374
     12 N          61.4524   92.5613    3.0806 N.ar    1  UNL1       -0.2083
     13 N          59.4396   94.0892   -0.6429 N.pl3   1  UNL1       -0.2903
     14 C          60.1503   94.0195   -1.9620 C.3     1  UNL1        0.1095
     15 C          59.4794   94.5288   -3.2032 C.3     1  UNL1        0.0939
     16 N          58.0978   95.1078   -3.1252 N.3     1  UNL1       -0.2668
     17 C          57.3871   95.1775   -1.8061 C.3     1  UNL1        0.0939
     18 C          58.0580   94.6681   -0.5649 C.3     1  UNL1        0.1095
     19 C          57.4269   95.6171   -4.3664 C.3     1  UNL1        0.1173
     20 C          57.7097   95.5299   -5.8369 C.3     1  UNL1        0.1606
     21 O          56.4781   96.3374   -6.1216 O.3     1  UNL1       -0.3507
     22 C          56.1953   96.4247   -4.6512 C.3     1  UNL1        0.1606
     23 C          63.7432   93.3994    2.1863 C.3     1  UNL1        0.4524
     24 F          65.2240   93.5639    2.3597 F       1  UNL1       -0.1632
     25 F          63.6029   94.8787    1.9817 F       1  UNL1       -0.1632
     26 F          63.8834   91.9201    2.3909 F       1  UNL1       -0.1632
     27 N          60.3684   89.8897    8.2580 N.am    1  UNL1       -0.3040
     28 C          59.7002   89.2843    7.0591 C.2     1  UNL1        0.2237
     29 O          59.7063   87.7965    6.8686 O.2     1  UNL1       -0.2751
     30 H          60.3644   90.8662    8.3830 H       1  UNL1        0.1494
     31 C          61.0427   89.0072    9.2662 C.3     1  UNL1        0.0941
     32 C          61.1222   89.4336   10.7021 C.3     1  UNL1        0.0476
     33 C          64.7116   91.7120   12.1770 C.ar    1  UNL1        0.0684
     34 C          64.0071   90.7509   13.0879 C.ar    1  UNL1        0.0100
     35 C          62.8106   89.9914   12.5963 C.ar    1  UNL1       -0.0035
     36 C          62.3187   90.1931   11.1937 C.ar    1  UNL1       -0.0204
     37 C          63.0232   91.1543   10.2828 C.ar    1  UNL1       -0.0035
     38 C          64.2196   91.9137   10.7745 C.ar    1  UNL1        0.0100
     39 N          67.1045   93.2310   13.1603 N.1     1  UNL1       -0.1908
     40 C          65.9080   92.4715   12.6687 C.1     1  UNL1        0.1004
@<TRIPOS>BOND
     1    39    40    3
     2    40    33    1
     3    33    34   ar
     4    34    35   ar
     5    35    36   ar
     6    36    32    1
     7    32    31    1
     8    31    27    1
     9    27    28   am
    10    28    29    2
    11     1    28    1
    12     1     2    1
    13     2     3    1
    14     3     4    1
    15     4     5    1
    16     5     7    1
    17     7     8   ar
    18     8     9   ar
    19     9    13    1
    20    13    14    1
    21    14    15    1
    22    15    16    1
    23    16    19    1
    24    19    20    1
    25    20    21    1
    26    21    22    1
    27    16    17    1
    28    17    18    1
    29     9    10   ar
    30    10    11   ar
    31    11    23    1
    32    23    24    1
    33    23    25    1
    34    23    26    1
    35    11    12   ar
    36     5     6    1
    37    36    37   ar
    38    37    38   ar
    39    38    33   ar
    40     6     1    1
    41    12     7   ar
    42    18    13    1
    43    22    19    1
    44    27    30    1
@<TRIPOS>MOLECULE
*****
 40 44 0 0 0
SMALL
GASTEIGER

@<TRIPOS>ATOM
      1 C          59.0604   90.2184    5.9954 C.3     1  UNL1        0.0963
      2 C          57.5767   90.4274    6.0646 C.3     1  UNL1        0.0126
      3 C          56.8945   91.3016    5.0545 C.3     1  UNL1        0.0220
      4 C          57.6960   91.9668    3.9751 C.3     1  UNL1        0.0922
      5 N          59.1798   91.7578    3.9059 N.pl3   1  UNL1       -0.2926
      6 C          59.8620   90.8836    4.9160 C.3     1  UNL1        0.1012
      7 C          59.9813   92.4230    2.8265 C.ar    1  UNL1        0.1361
      8 C          59.3078   92.8830    1.5676 C.ar    1  UNL1        0.0686
      9 C          60.1093   93.5482    0.4882 C.ar    1  UNL1        0.1362
     10 N          61.5844   93.7533    0.6677 N.ar    1  UNL1       -0.2083
     11 C          62.2579   93.2933    1.9266 C.ar    1  UNL1        0.2374
     12 N          61.4563   92.6281    3.0060 N.ar    1  UNL1       -0.2083
     13 N          59.4358   94.0082   -0.7706 N.pl3   1  UNL1       -0.2903
     14 C          60.1075   93.8081   -2.0968 C.3     1  UNL1        0.1095
     15 C          59.4340   94.2682   -3.3557 C.3     1  UNL1        0.0939
     16 N          58.0888   94.9283   -3.2884 N.3     1  UNL1       -0.2668
     17 C          57.4171   95.1285   -1.9622 C.3     1  UNL1        0.0939
     18 C          58.0906   94.6684   -0.7033 C.3     1  UNL1        0.1095
     19 C          57.4154   95.3884   -4.5473 C.3     1  UNL1        0.1173
     20 C          56.3622   94.8239   -5.4540 C.3     1  UNL1        0.1606
     21 O          56.4629   96.0390   -6.3276 O.3     1  UNL1       -0.3507
     22 C          57.5161   96.6036   -5.4209 C.3     1  UNL1        0.1606
     23 C          63.7329   93.4984    2.1061 C.3     1  UNL1        0.4524
     24 F          65.2080   93.7035    2.2856 F       1  UNL1       -0.1632
     25 F          63.8902   92.0511    2.4671 F       1  UNL1       -0.1632
     26 F          63.5755   94.9458    1.7451 F       1  UNL1       -0.1632
     27 N          60.2610   89.9370    8.2822 N.am    1  UNL1       -0.3040
     28 C          59.7426   89.3442    7.0055 C.2     1  UNL1        0.2237
     29 O          59.9065   87.8772    6.7390 O.2     1  UNL1       -0.2751
     30 H          60.1535   90.8999    8.4572 H       1  UNL1        0.1494
     31 C          60.9432   89.0628    9.2924 C.3     1  UNL1        0.0941
     32 C          60.3834   87.7085    9.6120 C.3     1  UNL1        0.0476
     33 C          63.1498   84.3291   10.6969 C.ar    1  UNL1        0.0684
     34 C          62.3175   84.9869   11.7573 C.ar    1  UNL1        0.0100
     35 C          61.3954   86.1133   11.3957 C.ar    1  UNL1       -0.0035
     36 C          61.3055   86.5820    9.9736 C.ar    1  UNL1       -0.0204
     37 C          62.1378   85.9242    8.9132 C.ar    1  UNL1       -0.0035
     38 C          63.0600   84.7978    9.2748 C.ar    1  UNL1        0.0100
     39 N          64.9941   82.0762   11.4201 N.1     1  UNL1       -0.1908
     40 C          64.0720   83.2027   11.0585 C.1     1  UNL1        0.1004
@<TRIPOS>BOND
     1    39    40    3
     2    40    33    1
     3    33    34   ar
     4    34    35   ar
     5    35    36   ar
     6    36    32    1
     7    32    31    1
     8    31    27    1
     9    27    28   am
    10    28    29    2
    11     1    28    1
    12     1     2    1
    13     2     3    1
    14     3     4    1
    15     4     5    1
    16     5     7    1
    17     7     8   ar
    18     8     9   ar
    19     9    13    1
    20    13    14    1
    21    14    15    1
    22    15    16    1
    23    16    19    1
    24    19    20    1
    25    20    21    1
    26    21    22    1
    27    16    17    1
    28    17    18    1
    29     9    10   ar
    30    10    11   ar
    31    11    23    1
    32    23    24    1
    33    23    25    1
    34    23    26    1
    35    11    12   ar
    36     5     6    1
    37    36    37   ar
    38    37    38   ar
    39    38    33   ar
    40     6     1    1
    41    12     7   ar
    42    18    13    1
    43    22    19    1
    44    27    30    1
