@<TRIPOS>MOLECULE
*****
 29 33 0 0 0
SMALL
GASTEIGER

@<TRIPOS>ATOM
      1 C          62.7653   84.0185   12.9158 C.ar    1  UNL1        0.0010
      2 C          63.9003   84.6341   13.6791 C.ar    1  UNL1        0.0002
      3 C          64.1528   86.1098   13.5872 C.ar    1  UNL1        0.0051
      4 C          63.2703   86.9699   12.7320 C.ar    1  UNL1        0.0623
      5 C          62.1352   86.3542   11.9687 C.ar    1  UNL1        0.0775
      6 C          61.8827   84.8785   12.0606 C.ar    1  UNL1        0.0167
      7 N          61.2527   87.2143   11.1135 N.am    1  UNL1       -0.1720
      8 C          61.5052   88.6900   11.0216 C.2     1  UNL1        0.3160
      9 O          60.6226   89.5501   10.1664 O.2     1  UNL1       -0.2638
     10 C          62.6403   89.3057   11.7849 C.2     1  UNL1        0.2907
     11 N          63.1295   90.7199   11.8892 N.2     1  UNL1       -0.0255
     12 C          64.3143   90.7337   12.8089 C.2     1  UNL1        0.3787
     13 N          64.5574   89.3283   13.2730 N.2     1  UNL1       -0.0302
     14 C          63.5228   88.4456   12.6401 C.2     1  UNL1        0.2419
     15 C          65.1154   91.9412   13.1965 C.ar    1  UNL1        0.1263
     16 C          65.5069   92.1533   14.6289 C.ar    1  UNL1        0.1484
     17 F          65.0974   91.1579   15.6737 F       1  UNL1       -0.2039
     18 C          66.3081   93.3608   15.0165 C.ar    1  UNL1        0.0300
     19 C          66.7176   94.3561   13.9717 C.ar    1  UNL1        0.0032
     20 C          66.3261   94.1440   12.5394 C.ar    1  UNL1        0.0118
     21 C          65.5250   92.9365   12.1518 C.ar    1  UNL1        0.0673
     22 CL         65.1334   92.7244   10.7194 Cl      1  UNL1       -0.0819
     23 C          63.7873   82.1854   10.7721 C.3     1  UNL1        0.0310
     24 C          63.0238   81.6262   11.9359 C.ar    1  UNL1       -0.0218
     25 C          62.7713   80.1505   12.0278 C.ar    1  UNL1       -0.0043
     26 C          62.0077   79.5912   13.1915 C.ar    1  UNL1       -0.0003
     27 C          61.4967   80.5077   14.2634 C.ar    1  UNL1       -0.0000
     28 C          61.7492   81.9835   14.1715 C.ar    1  UNL1       -0.0003
     29 C          62.5128   82.5427   13.0077 C.ar    1  UNL1       -0.0039
@<TRIPOS>BOND
     1    23    24    1
     2    24    25   ar
     3    25    26   ar
     4    26    27   ar
     5    27    28   ar
     6    28    29   ar
     7    29     1    1
     8     1     2   ar
     9     2     3   ar
    10     3     4   ar
    11     4     5   ar
    12     5     6   ar
    13     5     7    2
    14     7     8    1
    15     8     9    2
    16     8    10    1
    17    10    11    2
    18    11    12    1
    19    12    15    1
    20    15    16   ar
    21    16    17    1
    22    16    18   ar
    23    18    19   ar
    24    19    20   ar
    25    20    21   ar
    26    21    22    1
    27    12    13    2
    28    13    14    1
    29    29    24   ar
    30     6     1   ar
    31    14    10    1
    32    14     4    2
    33    21    15   ar
@<TRIPOS>MOLECULE
*****
 29 33 0 0 0
SMALL
GASTEIGER

@<TRIPOS>ATOM
      1 C          63.0620   83.1737   12.0094 C.ar    1  UNL1        0.0010
      2 C          63.9279   83.6173   13.1511 C.ar    1  UNL1        0.0002
      3 C          64.0819   85.0788   13.4517 C.ar    1  UNL1        0.0051
      4 C          63.3701   86.0966   12.6106 C.ar    1  UNL1        0.0623
      5 C          62.5042   85.6529   11.4690 C.ar    1  UNL1        0.0775
      6 C          62.3502   84.1915   11.1684 C.ar    1  UNL1        0.0167
      7 N          61.7924   86.6708   10.6280 N.am    1  UNL1       -0.1720
      8 C          61.9464   88.1322   10.9286 C.2     1  UNL1        0.3160
      9 O          61.2346   89.1500   10.0875 O.2     1  UNL1       -0.2638
     10 C          62.8124   88.5759   12.0703 C.2     1  UNL1        0.2907
     11 N          63.1524   89.9365   12.6023 N.2     1  UNL1       -0.0255
     12 C          64.0744   89.7596   13.7721 C.2     1  UNL1        0.3787
     13 N          64.3042   88.2897   13.9631 N.2     1  UNL1       -0.0302
     14 C          63.5242   87.5581   12.9113 C.2     1  UNL1        0.2419
     15 C          64.6633   90.8595   14.6048 C.ar    1  UNL1        0.1263
     16 C          65.7037   91.7680   14.0200 C.ar    1  UNL1        0.1484
     17 F          66.1554   91.5766   12.6024 F       1  UNL1       -0.2039
     18 C          66.2926   92.8679   14.8527 C.ar    1  UNL1        0.0300
     19 C          65.8410   93.0593   16.2702 C.ar    1  UNL1        0.0032
     20 C          64.8006   92.1508   16.8551 C.ar    1  UNL1        0.0118
     21 C          64.2117   91.0509   16.0224 C.ar    1  UNL1        0.0673
     22 CL         63.1712   90.1424   16.6072 Cl      1  UNL1       -0.0819
     23 C          62.1587   81.2870   14.1599 C.3     1  UNL1        0.0310
     24 C          62.4563   80.7689   12.7840 C.ar    1  UNL1       -0.0218
     25 C          62.3022   79.3074   12.4834 C.ar    1  UNL1       -0.0043
     26 C          62.5998   78.7892   11.1075 C.ar    1  UNL1       -0.0003
     27 C          63.0515   79.7325   10.0323 C.ar    1  UNL1       -0.0000
     28 C          63.2055   81.1941   10.3330 C.ar    1  UNL1       -0.0003
     29 C          62.9079   81.7122   11.7088 C.ar    1  UNL1       -0.0039
@<TRIPOS>BOND
     1    23    24    1
     2    24    25   ar
     3    25    26   ar
     4    26    27   ar
     5    27    28   ar
     6    28    29   ar
     7    29     1    1
     8     1     2   ar
     9     2     3   ar
    10     3     4   ar
    11     4     5   ar
    12     5     6   ar
    13     5     7    2
    14     7     8    1
    15     8     9    2
    16     8    10    1
    17    10    11    2
    18    11    12    1
    19    12    15    1
    20    15    16   ar
    21    16    17    1
    22    16    18   ar
    23    18    19   ar
    24    19    20   ar
    25    20    21   ar
    26    21    22    1
    27    12    13    2
    28    13    14    1
    29    29    24   ar
    30     6     1   ar
    31    14    10    1
    32    14     4    2
    33    21    15   ar
@<TRIPOS>MOLECULE
*****
 29 33 0 0 0
SMALL
GASTEIGER

@<TRIPOS>ATOM
      1 C          59.4662   89.2981    7.2838 C.ar    1  UNL1        0.0010
      2 C          59.3465   87.8033    7.2504 C.ar    1  UNL1        0.0002
      3 C          60.0466   86.9716    8.2838 C.ar    1  UNL1        0.0051
      4 C          60.8664   87.6347    9.3507 C.ar    1  UNL1        0.0623
      5 C          60.9861   89.1295    9.3841 C.ar    1  UNL1        0.0775
      6 C          60.2860   89.9612    8.3506 C.ar    1  UNL1        0.0167
      7 N          61.8059   89.7926   10.4509 N.am    1  UNL1       -0.1720
      8 C          62.5061   88.9609   11.4844 C.2     1  UNL1        0.3160
      9 O          63.3259   89.6241   12.5512 O.2     1  UNL1       -0.2638
     10 C          62.3864   87.4660   11.4510 C.2     1  UNL1        0.2907
     11 N          62.9585   86.3934   12.3298 N.2     1  UNL1       -0.0255
     12 C          62.4922   85.0675   11.8060 C.2     1  UNL1        0.3787
     13 N          61.6320   85.3205   10.6036 N.2     1  UNL1       -0.0302
     14 C          61.5666   86.8029   10.3841 C.2     1  UNL1        0.2419
     15 C          62.8274   83.7242   12.3834 C.ar    1  UNL1        0.1263
     16 C          62.4564   83.4035   13.8009 C.ar    1  UNL1        0.1484
     17 F          61.7503   84.4260   14.6412 F       1  UNL1       -0.2039
     18 C          62.7916   82.0602   14.3783 C.ar    1  UNL1        0.0300
     19 C          63.4976   81.0377   13.5382 C.ar    1  UNL1        0.0032
     20 C          63.8686   81.3585   12.1206 C.ar    1  UNL1        0.0118
     21 C          63.5334   82.7018   11.5432 C.ar    1  UNL1        0.0673
     22 CL         63.9044   83.0225   10.1256 Cl      1  UNL1       -0.0819
     23 C          61.0636   90.9170    5.3274 C.3     1  UNL1        0.0310
     24 C          59.5647   90.9393    5.2721 C.ar    1  UNL1       -0.0218
     25 C          58.8646   91.7711    4.2387 C.ar    1  UNL1       -0.0043
     26 C          57.3658   91.7934    4.1834 C.ar    1  UNL1       -0.0003
     27 C          56.5670   90.9839    5.1616 C.ar    1  UNL1       -0.0000
     28 C          57.2672   90.1522    6.1951 C.ar    1  UNL1       -0.0003
     29 C          58.7660   90.1299    6.2503 C.ar    1  UNL1       -0.0039
@<TRIPOS>BOND
     1    23    24    1
     2    24    25   ar
     3    25    26   ar
     4    26    27   ar
     5    27    28   ar
     6    28    29   ar
     7    29     1    1
     8     1     2   ar
     9     2     3   ar
    10     3     4   ar
    11     4     5   ar
    12     5     6   ar
    13     5     7    2
    14     7     8    1
    15     8     9    2
    16     8    10    1
    17    10    11    2
    18    11    12    1
    19    12    15    1
    20    15    16   ar
    21    16    17    1
    22    16    18   ar
    23    18    19   ar
    24    19    20   ar
    25    20    21   ar
    26    21    22    1
    27    12    13    2
    28    13    14    1
    29    29    24   ar
    30     6     1   ar
    31    14    10    1
    32    14     4    2
    33    21    15   ar
@<TRIPOS>MOLECULE
*****
 29 33 0 0 0
SMALL
GASTEIGER

@<TRIPOS>ATOM
      1 C          62.8574   83.7799   13.7106 C.ar    1  UNL1        0.0010
      2 C          63.3722   84.5623   12.5390 C.ar    1  UNL1        0.0002
      3 C          63.7410   86.0067   12.7054 C.ar    1  UNL1        0.0051
      4 C          63.5949   86.6686   14.0435 C.ar    1  UNL1        0.0623
      5 C          63.0801   85.8862   15.2151 C.ar    1  UNL1        0.0775
      6 C          62.7114   84.4419   15.0487 C.ar    1  UNL1        0.0167
      7 N          62.9341   86.5482   16.5532 N.am    1  UNL1       -0.1720
      8 C          63.3028   87.9926   16.7197 C.2     1  UNL1        0.3160
      9 O          63.1568   88.6545   18.0578 O.2     1  UNL1       -0.2638
     10 C          63.8177   88.7751   15.5480 C.2     1  UNL1        0.2907
     11 N          64.2577   90.2024   15.4096 N.2     1  UNL1       -0.0255
     12 C          64.6757   90.4225   13.9860 C.2     1  UNL1        0.3787
     13 N          64.4940   89.1313   13.2445 N.2     1  UNL1       -0.0302
     14 C          63.9637   88.1131   14.2099 C.2     1  UNL1        0.2419
     15 C          65.1858   91.7082   13.4056 C.ar    1  UNL1        0.1263
     16 C          64.8611   92.0717   11.9871 C.ar    1  UNL1        0.1484
     17 F          64.0261   91.1496   11.1488 F       1  UNL1       -0.2039
     18 C          65.3712   93.3574   11.4067 C.ar    1  UNL1        0.0300
     19 C          66.2061   94.2795   12.2449 C.ar    1  UNL1        0.0032
     20 C          66.5308   93.9160   13.6635 C.ar    1  UNL1        0.0118
     21 C          66.0207   92.6303   14.2438 C.ar    1  UNL1        0.0673
     22 CL         66.3455   92.2667   15.6624 Cl      1  UNL1       -0.0819
     23 C          64.3180   82.0790   11.7171 C.3     1  UNL1        0.0310
     24 C          63.2189   81.4850   12.5474 C.ar    1  UNL1       -0.0218
     25 C          62.8502   80.0406   12.3810 C.ar    1  UNL1       -0.0043
     26 C          61.7511   79.4466   13.2113 C.ar    1  UNL1       -0.0003
     27 C          61.0209   80.2970   14.2080 C.ar    1  UNL1       -0.0000
     28 C          61.3897   81.7415   14.3744 C.ar    1  UNL1       -0.0003
     29 C          62.4886   82.3354   13.5442 C.ar    1  UNL1       -0.0039
@<TRIPOS>BOND
     1    23    24    1
     2    24    25   ar
     3    25    26   ar
     4    26    27   ar
     5    27    28   ar
     6    28    29   ar
     7    29     1    1
     8     1     2   ar
     9     2     3   ar
    10     3     4   ar
    11     4     5   ar
    12     5     6   ar
    13     5     7    2
    14     7     8    1
    15     8     9    2
    16     8    10    1
    17    10    11    2
    18    11    12    1
    19    12    15    1
    20    15    16   ar
    21    16    17    1
    22    16    18   ar
    23    18    19   ar
    24    19    20   ar
    25    20    21   ar
    26    21    22    1
    27    12    13    2
    28    13    14    1
    29    29    24   ar
    30     6     1   ar
    31    14    10    1
    32    14     4    2
    33    21    15   ar
@<TRIPOS>MOLECULE
*****
 29 33 0 0 0
SMALL
GASTEIGER

@<TRIPOS>ATOM
      1 C          64.6041   89.4847   14.2367 C.ar    1  UNL1        0.0010
      2 C          64.9787   88.1940   14.9028 C.ar    1  UNL1        0.0002
      3 C          64.4963   86.8909   14.3378 C.ar    1  UNL1        0.0051
      4 C          63.6392   86.8785   13.1068 C.ar    1  UNL1        0.0623
      5 C          63.2647   88.1693   12.4408 C.ar    1  UNL1        0.0775
      6 C          63.7471   89.4723   13.0057 C.ar    1  UNL1        0.0167
      7 N          62.4076   88.1569   11.2098 N.am    1  UNL1       -0.1720
      8 C          61.9252   86.8538   10.6448 C.2     1  UNL1        0.3160
      9 O          61.0682   86.8415    9.4138 O.2     1  UNL1       -0.2638
     10 C          62.2998   85.5630   11.3109 C.2     1  UNL1        0.2907
     11 N          61.9757   84.1349   10.9860 N.2     1  UNL1       -0.0255
     12 C          62.6324   83.2647   12.0162 C.2     1  UNL1        0.3787
     13 N          63.3624   84.1549   12.9778 N.2     1  UNL1       -0.0302
     14 C          63.1568   85.5754   12.5419 C.2     1  UNL1        0.2419
     15 C          62.5702   81.7672   12.0746 C.ar    1  UNL1        0.1263
     16 C          62.9997   80.9520   10.8911 C.ar    1  UNL1        0.1484
     17 F          63.4916   81.6343    9.6490 F       1  UNL1       -0.2039
     18 C          62.9374   79.4544   10.9494 C.ar    1  UNL1        0.0300
     19 C          62.4456   78.7720   12.1914 C.ar    1  UNL1        0.0032
     20 C          62.0160   79.5873   13.3749 C.ar    1  UNL1        0.0118
     21 C          62.0783   81.0848   13.3165 C.ar    1  UNL1        0.0673
     22 CL         61.6487   81.9000   14.5002 Cl      1  UNL1       -0.0819
     23 C          63.3309   90.6110   16.7086 C.3     1  UNL1        0.0310
     24 C          64.4500   91.3510   16.0376 C.ar    1  UNL1       -0.0218
     25 C          64.9324   92.6541   16.6025 C.ar    1  UNL1       -0.0043
     26 C          66.0514   93.3941   15.9315 C.ar    1  UNL1       -0.0003
     27 C          66.6880   92.8309   14.6956 C.ar    1  UNL1       -0.0000
     28 C          66.2056   91.5278   14.1307 C.ar    1  UNL1       -0.0003
     29 C          65.0866   90.7878   14.8017 C.ar    1  UNL1       -0.0039
@<TRIPOS>BOND
     1    23    24    1
     2    24    25   ar
     3    25    26   ar
     4    26    27   ar
     5    27    28   ar
     6    28    29   ar
     7    29     1    1
     8     1     2   ar
     9     2     3   ar
    10     3     4   ar
    11     4     5   ar
    12     5     6   ar
    13     5     7    2
    14     7     8    1
    15     8     9    2
    16     8    10    1
    17    10    11    2
    18    11    12    1
    19    12    15    1
    20    15    16   ar
    21    16    17    1
    22    16    18   ar
    23    18    19   ar
    24    19    20   ar
    25    20    21   ar
    26    21    22    1
    27    12    13    2
    28    13    14    1
    29    29    24   ar
    30     6     1   ar
    31    14    10    1
    32    14     4    2
    33    21    15   ar
@<TRIPOS>MOLECULE
*****
 29 33 0 0 0
SMALL
GASTEIGER

@<TRIPOS>ATOM
      1 C          61.1516   93.1515    2.0089 C.ar    1  UNL1        0.0010
      2 C          62.2047   92.4489    2.8134 C.ar    1  UNL1        0.0002
      3 C          61.8111   91.6009    3.9864 C.ar    1  UNL1        0.0051
      4 C          60.3643   91.4554    4.3548 C.ar    1  UNL1        0.0623
      5 C          59.3112   92.1579    3.5503 C.ar    1  UNL1        0.0775
      6 C          59.7048   93.0060    2.3773 C.ar    1  UNL1        0.0167
      7 N          57.8645   92.0124    3.9187 N.am    1  UNL1       -0.1720
      8 C          57.4708   91.1644    5.0916 C.2     1  UNL1        0.3160
      9 O          56.0241   91.0189    5.4601 O.2     1  UNL1       -0.2638
     10 C          58.5240   90.4618    5.8962 C.2     1  UNL1        0.2907
     11 N          58.4391   89.5654    7.0959 N.2     1  UNL1       -0.0255
     12 C          59.8333   89.1569    7.4689 C.2     1  UNL1        0.3787
     13 N          60.7799   89.8008    6.4998 N.2     1  UNL1       -0.0302
     14 C          59.9707   90.6073    5.5278 C.2     1  UNL1        0.2419
     15 C          60.2141   88.2617    8.6106 C.ar    1  UNL1        0.1263
     16 C          60.5371   86.8190    8.3570 C.ar    1  UNL1        0.1484
     17 F          60.4793   86.2715    6.9616 F       1  UNL1       -0.2039
     18 C          60.9179   85.9237    9.4987 C.ar    1  UNL1        0.0300
     19 C          60.9757   86.4711   10.8940 C.ar    1  UNL1        0.0032
     20 C          60.6527   87.9138   11.1476 C.ar    1  UNL1        0.0118
     21 C          60.2719   88.8090   10.0059 C.ar    1  UNL1        0.0673
     22 CL         59.9489   90.2518   10.2596 Cl      1  UNL1       -0.0819
     23 C          60.4324   92.2901   -0.7733 C.3     1  UNL1        0.0310
     24 C          61.1856   93.5689   -0.5552 C.ar    1  UNL1       -0.0218
     25 C          61.5791   94.4169   -1.7282 C.ar    1  UNL1       -0.0043
     26 C          62.3323   95.6957   -1.5101 C.ar    1  UNL1       -0.0003
     27 C          62.6919   96.1264   -0.1190 C.ar    1  UNL1       -0.0000
     28 C          62.2983   95.2783    1.0541 C.ar    1  UNL1       -0.0003
     29 C          61.5452   93.9996    0.8359 C.ar    1  UNL1       -0.0039
@<TRIPOS>BOND
     1    23    24    1
     2    24    25   ar
     3    25    26   ar
     4    26    27   ar
     5    27    28   ar
     6    28    29   ar
     7    29     1    1
     8     1     2   ar
     9     2     3   ar
    10     3     4   ar
    11     4     5   ar
    12     5     6   ar
    13     5     7    2
    14     7     8    1
    15     8     9    2
    16     8    10    1
    17    10    11    2
    18    11    12    1
    19    12    15    1
    20    15    16   ar
    21    16    17    1
    22    16    18   ar
    23    18    19   ar
    24    19    20   ar
    25    20    21   ar
    26    21    22    1
    27    12    13    2
    28    13    14    1
    29    29    24   ar
    30     6     1   ar
    31    14    10    1
    32    14     4    2
    33    21    15   ar
