@<TRIPOS>MOLECULE
*****
 37 42 0 0 0
SMALL
GASTEIGER

@<TRIPOS>ATOM
      1 C          63.7159   84.4378   13.8551 C.2     1  UNL1        0.1558
      2 N          64.5096   84.9324   15.0280 N.2     1  UNL1       -0.2402
      3 C          64.5739   86.4288   14.9461 C.2     1  UNL1        0.0929
      4 C          63.8201   86.8590   13.7227 C.2     1  UNL1        0.0093
      5 C          63.2898   85.6284   13.0484 C.3     1  UNL1        0.1374
      6 N          62.4875   85.7511   11.7870 N.pl3   1  UNL1       -0.3295
      7 C          62.2154   87.1044   11.1998 C.2     1  UNL1        0.0215
      8 C          62.7456   88.3349   11.8741 C.2     1  UNL1        0.0322
      9 C          62.4736   89.6881   11.2870 C.2     1  UNL1        0.1707
     10 O          63.0038   90.9186   11.9612 O.2     1  UNL1       -0.2916
     11 C          61.6712   89.8108   10.0256 C.3     1  UNL1        0.0693
     12 C          61.1410   88.5803    9.3513 C.3     1  UNL1        0.0141
     13 C          61.4130   87.2271    9.9385 C.3     1  UNL1        0.0411
     14 C          63.5480   88.2122   13.1356 C.3     1  UNL1        0.1049
     15 H          62.1395   84.9435   11.3445 H       1  UNL1        0.1471
     16 C          64.0783   89.4427   13.8098 C.ar    1  UNL1        0.1312
     17 C          63.5970   90.0116   15.1116 C.ar    1  UNL1        0.0373
     18 C          64.4042   91.2409   15.4070 C.ar    1  UNL1        0.0472
     19 C          65.3844   91.4317   14.2878 C.ar    1  UNL1        0.1774
     20 O          65.1830   90.3204   13.3007 O.2     1  UNL1       -0.4506
     21 S          66.3896   92.5394   14.1754 S.3     1  UNL1       -0.0117
     22 C          66.5510   93.2770   12.8794 C.2     1  UNL1        0.1968
     23 N          67.1940   92.7417   11.6344 N.2     1  UNL1       -0.2166
     24 C          67.1382   93.8134   10.5863 C.2     1  UNL1        0.1308
     25 C          67.6168   93.8533    9.1652 C.2     1  UNL1        0.1521
     26 O          68.2943   92.6558    8.5680 O.2     1  UNL1       -0.5040
     27 C          67.4178   95.0910    8.3415 C.2     1  UNL1        0.0340
     28 C          66.7403   96.2886    8.9386 C.2     1  UNL1       -0.0166
     29 C          66.2617   96.2486   10.3597 C.3     1  UNL1        0.0736
     30 C          66.4607   95.0110   11.1835 C.2     1  UNL1        0.0861
     31 N          66.0978   94.6795   12.6008 N.2     1  UNL1       -0.2233
     32 H          68.4186   91.8827    9.0826 H       1  UNL1        0.2923
     33 C          63.4033   83.0042   13.5437 C.2     1  UNL1        0.3569
     34 O          63.7795   81.9261   14.5164 O.2     1  UNL1       -0.2435
     35 O          62.7145   82.6487   12.2595 O.3     1  UNL1       -0.4446
     36 C          64.2538   83.0464   10.2046 C.3     1  UNL1        0.0513
     37 C          63.5084   82.1084   11.1071 C.3     1  UNL1        0.2089
@<TRIPOS>BOND
     1    36    37    1
     2    37    35    1
     3    35    33    1
     4    33    34    2
     5    33     1    1
     6     1     2    2
     7     2     3    1
     8     3     4    2
     9     4     5    1
    10     5     6    1
    11     6     7    1
    12     7     8    2
    13     8     9    1
    14     9    10    2
    15     9    11    1
    16    11    12    1
    17    12    13    1
    18     8    14    1
    19    14    16    1
    20    16    17   ar
    21    17    18   ar
    22    18    19   ar
    23    19    21    1
    24    21    22    1
    25    22    23    2
    26    23    24    1
    27    24    25    2
    28    25    26    1
    29    25    27    1
    30    27    28    2
    31    28    29    1
    32    29    30    1
    33    30    31    2
    34    19    20   ar
    35     5     1    1
    36    13     7    1
    37    20    16   ar
    38    14     4    1
    39    31    22    1
    40    30    24    1
    41     6    15    1
    42    26    32    1
@<TRIPOS>MOLECULE
*****
 37 42 0 0 0
SMALL
GASTEIGER

@<TRIPOS>ATOM
      1 C          60.8168   88.1855    9.4128 C.2     1  UNL1        0.1558
      2 N          60.9178   89.6774    9.5311 N.2     1  UNL1       -0.2402
      3 C          61.7846   89.9909   10.7145 C.2     1  UNL1        0.0929
      4 C          62.2192   88.6927   11.3276 C.2     1  UNL1        0.0093
      5 C          61.6211   87.5769   10.5231 C.3     1  UNL1        0.1374
      6 N          61.8861   86.1509   10.9055 N.pl3   1  UNL1       -0.3295
      7 C          62.7492   85.8407   12.0925 C.2     1  UNL1        0.0215
      8 C          63.3474   86.9565   12.8970 C.2     1  UNL1        0.0322
      9 C          64.2105   86.6462   14.0838 C.2     1  UNL1        0.1707
     10 O          64.8086   87.7620   14.8883 O.2     1  UNL1       -0.2916
     11 C          64.4755   85.2203   14.4662 C.3     1  UNL1        0.0693
     12 C          63.8773   84.1045   13.6617 C.3     1  UNL1        0.0141
     13 C          63.0142   84.4147   12.4748 C.3     1  UNL1        0.0411
     14 C          63.0823   88.3825   12.5145 C.3     1  UNL1        0.1049
     15 H          61.4935   85.4186   10.3775 H       1  UNL1        0.1471
     16 C          63.6805   89.4983   13.3190 C.ar    1  UNL1        0.1312
     17 C          63.2482   89.9270   14.6899 C.ar    1  UNL1        0.0373
     18 C          64.1165   91.0749   15.1120 C.ar    1  UNL1        0.0472
     19 C          65.0855   91.3558   14.0020 C.ar    1  UNL1        0.1774
     20 O          64.8160   90.3814   12.8939 O.2     1  UNL1       -0.4506
     21 S          66.1390   92.4236   14.0004 S.3     1  UNL1       -0.0117
     22 C          66.4212   93.1967   12.7465 C.2     1  UNL1        0.1968
     23 N          67.0799   92.6612   11.5099 N.2     1  UNL1       -0.2166
     24 C          67.1602   93.7748   10.5080 C.2     1  UNL1        0.1308
     25 C          67.7092   93.8325    9.1133 C.2     1  UNL1        0.1521
     26 O          68.3183   92.6088    8.4958 O.2     1  UNL1       -0.5040
     27 C          67.6490   95.1141    8.3361 C.2     1  UNL1        0.0340
     28 C          67.0399   96.3378    8.9536 C.2     1  UNL1       -0.0166
     29 C          66.4909   96.2801   10.3483 C.3     1  UNL1        0.0736
     30 C          66.5510   94.9986   11.1255 C.2     1  UNL1        0.0861
     31 N          66.0943   94.6413   12.5090 N.2     1  UNL1       -0.2233
     32 H          68.3559   91.8082    8.9814 H       1  UNL1        0.2923
     33 C          60.0466   87.4341    8.3677 C.2     1  UNL1        0.3569
     34 O          59.0815   88.1616    7.4794 O.2     1  UNL1       -0.2435
     35 O          60.2416   85.9551    8.2110 O.3     1  UNL1       -0.4446
     36 C          62.6582   85.1243    7.7419 C.3     1  UNL1        0.0513
     37 C          61.2728   85.4315    7.2557 C.3     1  UNL1        0.2089
@<TRIPOS>BOND
     1    36    37    1
     2    37    35    1
     3    35    33    1
     4    33    34    2
     5    33     1    1
     6     1     2    2
     7     2     3    1
     8     3     4    2
     9     4     5    1
    10     5     6    1
    11     6     7    1
    12     7     8    2
    13     8     9    1
    14     9    10    2
    15     9    11    1
    16    11    12    1
    17    12    13    1
    18     8    14    1
    19    14    16    1
    20    16    17   ar
    21    17    18   ar
    22    18    19   ar
    23    19    21    1
    24    21    22    1
    25    22    23    2
    26    23    24    1
    27    24    25    2
    28    25    26    1
    29    25    27    1
    30    27    28    2
    31    28    29    1
    32    29    30    1
    33    30    31    2
    34    19    20   ar
    35     5     1    1
    36    13     7    1
    37    20    16   ar
    38    14     4    1
    39    31    22    1
    40    30    24    1
    41     6    15    1
    42    26    32    1
@<TRIPOS>MOLECULE
*****
 37 42 0 0 0
SMALL
GASTEIGER

@<TRIPOS>ATOM
      1 C          61.5275   87.0748    9.4391 C.2     1  UNL1        0.1558
      2 N          61.5793   88.5716    9.5212 N.2     1  UNL1       -0.2402
      3 C          62.2436   88.9421   10.8141 C.2     1  UNL1        0.0929
      4 C          62.6024   87.6742   11.5309 C.2     1  UNL1        0.0093
      5 C          62.1598   86.5201   10.6811 C.3     1  UNL1        0.1374
      6 N          62.3897   85.1133   11.1480 N.pl3   1  UNL1       -0.3295
      7 C          63.0622   84.8606   12.4648 C.2     1  UNL1        0.0215
      8 C          63.5048   86.0147   13.3146 C.2     1  UNL1        0.0322
      9 C          64.1773   85.7620   14.6314 C.2     1  UNL1        0.1707
     10 O          64.6199   86.9161   15.4812 O.2     1  UNL1       -0.2916
     11 C          64.4072   84.3552   15.0983 C.3     1  UNL1        0.0693
     12 C          63.9646   83.2011   14.2485 C.3     1  UNL1        0.0141
     13 C          63.2921   83.4538   12.9318 C.3     1  UNL1        0.0411
     14 C          63.2749   87.4215   12.8477 C.3     1  UNL1        0.1049
     15 H          62.0992   84.3559   10.5903 H       1  UNL1        0.1471
     16 C          63.7175   88.5756   13.6975 C.ar    1  UNL1        0.1312
     17 C          63.1173   88.9856   15.0095 C.ar    1  UNL1        0.0373
     18 C          63.8669   90.1857   15.5074 C.ar    1  UNL1        0.0472
     19 C          64.9304   90.5174   14.5030 C.ar    1  UNL1        0.1774
     20 O          64.8381   89.5223   13.3844 O.2     1  UNL1       -0.4506
     21 S          65.9136   91.6461   14.6001 S.3     1  UNL1       -0.0117
     22 C          66.2128   92.4859   13.3939 C.2     1  UNL1        0.1968
     23 N          65.8502   93.9301   13.2132 N.2     1  UNL1       -0.2166
     24 C          66.3404   94.3659   11.8641 C.2     1  UNL1        0.1308
     25 C          66.2667   95.6808   11.1460 C.2     1  UNL1        0.1521
     26 O          65.6010   96.8557   11.7989 O.2     1  UNL1       -0.5040
     27 C          66.8587   95.8206    9.7749 C.2     1  UNL1        0.0340
     28 C          67.5244   94.6457    9.1219 C.2     1  UNL1       -0.0166
     29 C          67.5981   93.3309    9.8401 C.3     1  UNL1        0.0736
     30 C          67.0062   93.1910   11.2112 C.2     1  UNL1        0.0861
     31 N          66.9273   92.0291   12.1567 N.2     1  UNL1       -0.2233
     32 H          65.2312   96.7683   12.6554 H       1  UNL1        0.2923
     33 C          60.9456   86.2732    8.3126 C.2     1  UNL1        0.3569
     34 O          61.8266   85.3702    7.5013 O.2     1  UNL1       -0.2435
     35 O          59.4826   86.3747    7.9975 O.3     1  UNL1       -0.4446
     36 C          59.2541   88.7585    6.9899 C.3     1  UNL1        0.0513
     37 C          58.8117   87.7161    7.9736 C.3     1  UNL1        0.2089
@<TRIPOS>BOND
     1    36    37    1
     2    37    35    1
     3    35    33    1
     4    33    34    2
     5    33     1    1
     6     1     2    2
     7     2     3    1
     8     3     4    2
     9     4     5    1
    10     5     6    1
    11     6     7    1
    12     7     8    2
    13     8     9    1
    14     9    10    2
    15     9    11    1
    16    11    12    1
    17    12    13    1
    18     8    14    1
    19    14    16    1
    20    16    17   ar
    21    17    18   ar
    22    18    19   ar
    23    19    21    1
    24    21    22    1
    25    22    23    2
    26    23    24    1
    27    24    25    2
    28    25    26    1
    29    25    27    1
    30    27    28    2
    31    28    29    1
    32    29    30    1
    33    30    31    2
    34    19    20   ar
    35     5     1    1
    36    13     7    1
    37    20    16   ar
    38    14     4    1
    39    31    22    1
    40    30    24    1
    41     6    15    1
    42    26    32    1
