@<TRIPOS>MOLECULE
*****
 28 31 0 0 0
SMALL
GASTEIGER

@<TRIPOS>ATOM
      1 C          63.9685   83.3933    9.9805 C.3     1  UNL1        0.0365
      2 C          63.0392   84.5442   10.2294 C.ar    1  UNL1        0.0382
      3 C          62.5770   85.3961    9.0846 C.ar    1  UNL1        0.1416
      4 CL         63.0441   85.0971    7.6908 Cl      1  UNL1       -0.0614
      5 N          61.6477   86.5469    9.3335 N.ar    1  UNL1       -0.1829
      6 C          61.1806   86.8459   10.7272 C.ar    1  UNL1        0.3218
      7 N          61.6428   85.9940   11.8720 N.ar    1  UNL1       -0.1798
      8 C          62.5721   84.8431   11.6231 C.ar    1  UNL1        0.1316
      9 N          63.0344   83.9912   12.7680 N.pl3   1  UNL1       -0.3144
     10 H          62.6026   83.1237   12.9417 H       1  UNL1        0.1485
     11 C          64.1544   84.4611   13.6480 C.3     1  UNL1        0.1185
     12 C          63.8942   85.4898   14.7084 C.ar    1  UNL1        0.0370
     13 C          64.1814   86.9581   14.6017 C.ar    1  UNL1        0.1190
     14 N          63.7658   87.6064   15.8889 N.ar    1  UNL1       -0.1679
     15 N          63.2217   86.5387   16.7912 N.ar    1  UNL1       -0.2476
     16 C          62.6913   86.7433   18.1793 C.3     1  UNL1        0.1537
     17 C          63.3010   85.2305   16.0615 C.ar    1  UNL1        0.0941
     18 O          60.2513   87.9967   10.9761 O.3     1  UNL1       -0.4467
     19 C          60.7390   89.2087   11.7130 C.3     1  UNL1        0.2090
     20 C          61.9155   89.9800   11.1925 C.3     1  UNL1        0.0498
     21 C          62.6700   90.5798   10.0431 C.3     1  UNL1        0.0101
     22 C          63.1987   90.7161   11.4402 C.3     1  UNL1        0.0440
     23 C          64.2449   91.2199   12.3899 C.ar    1  UNL1        0.0588
     24 C          64.4315   90.5552   13.7215 C.ar    1  UNL1        0.0147
     25 C          65.4777   91.0590   14.6712 C.ar    1  UNL1        0.0028
     26 C          66.3373   92.2273   14.2891 C.ar    1  UNL1        0.0207
     27 C          66.1507   92.8920   12.9574 C.ar    1  UNL1        0.0984
     28 N          65.1045   92.3883   12.0078 N.ar    1  UNL1       -0.2482
@<TRIPOS>BOND
     1     1     2    1
     2     2     3   ar
     3     3     4    1
     4     3     5   ar
     5     5     6   ar
     6     6    18    1
     7    18    19    1
     8    20    19    1
     9    20    21    1
    10    21    22    1
    11    22    23    1
    12    23    24   ar
    13    24    25   ar
    14    25    26   ar
    15    26    27   ar
    16    27    28   ar
    17     6     7   ar
    18     7     8   ar
    19     8     9    1
    20     9    11    1
    21    11    12    1
    22    12    13   ar
    23    13    14   ar
    24    14    15   ar
    25    15    16    1
    26    15    17   ar
    27     8     2   ar
    28    17    12   ar
    29    22    20    1
    30    28    23   ar
    31     9    10    1
@<TRIPOS>MOLECULE
*****
 28 31 0 0 0
SMALL
GASTEIGER

@<TRIPOS>ATOM
      1 C          60.1958   86.0747    7.9975 C.3     1  UNL1        0.0365
      2 C          60.5948   87.1138    9.0031 C.ar    1  UNL1        0.0382
      3 C          60.2708   88.5577    8.7585 C.ar    1  UNL1        0.1416
      4 CL         59.5478   88.9628    7.5082 Cl      1  UNL1       -0.0614
      5 N          60.6698   89.5967    9.7641 N.ar    1  UNL1       -0.1829
      6 C          61.3929   89.1918   11.0143 C.ar    1  UNL1        0.3218
      7 N          61.7169   87.7478   11.2590 N.ar    1  UNL1       -0.1798
      8 C          61.3179   86.7088   10.2534 C.ar    1  UNL1        0.1316
      9 N          61.6419   85.2647   10.4981 N.pl3   1  UNL1       -0.3144
     10 H          60.9490   84.5767   10.3730 H       1  UNL1        0.1485
     11 C          63.0217   84.8690   10.9333 C.3     1  UNL1        0.1185
     12 C          63.2072   83.7411   11.9047 C.ar    1  UNL1        0.0370
     13 C          64.2241   83.6842   13.0060 C.ar    1  UNL1        0.1190
     14 N          64.0537   82.3801   13.7272 N.ar    1  UNL1       -0.1679
     15 N          62.9315   81.6310   13.0717 N.ar    1  UNL1       -0.2476
     16 C          62.4220   80.2782   13.4722 C.3     1  UNL1        0.1537
     17 C          62.4084   82.4722   11.9452 C.ar    1  UNL1        0.0941
     18 O          61.7919   90.2308   12.0200 O.3     1  UNL1       -0.4467
     19 C          63.2246   90.6623   12.1243 C.3     1  UNL1        0.2090
     20 C          64.0094   90.3630   13.3671 C.3     1  UNL1        0.0498
     21 C          65.1452   90.6801   14.2942 C.3     1  UNL1        0.0101
     22 C          64.2330   89.5274   14.5926 C.3     1  UNL1        0.0440
     23 C          63.8353   88.3794   15.4725 C.ar    1  UNL1        0.0588
     24 C          63.1489   88.6397   16.7805 C.ar    1  UNL1        0.0147
     25 C          62.7512   87.4917   17.6604 C.ar    1  UNL1        0.0028
     26 C          63.0401   86.0835   17.2321 C.ar    1  UNL1        0.0207
     27 C          63.7265   85.8232   15.9240 C.ar    1  UNL1        0.0984
     28 N          64.1241   86.9712   15.0442 N.ar    1  UNL1       -0.2482
@<TRIPOS>BOND
     1     1     2    1
     2     2     3   ar
     3     3     4    1
     4     3     5   ar
     5     5     6   ar
     6     6    18    1
     7    18    19    1
     8    20    19    1
     9    20    21    1
    10    21    22    1
    11    22    23    1
    12    23    24   ar
    13    24    25   ar
    14    25    26   ar
    15    26    27   ar
    16    27    28   ar
    17     6     7   ar
    18     7     8   ar
    19     8     9    1
    20     9    11    1
    21    11    12    1
    22    12    13   ar
    23    13    14   ar
    24    14    15   ar
    25    15    16    1
    26    15    17   ar
    27     8     2   ar
    28    17    12   ar
    29    22    20    1
    30    28    23   ar
    31     9    10    1
@<TRIPOS>MOLECULE
*****
 28 31 0 0 0
SMALL
GASTEIGER

@<TRIPOS>ATOM
      1 C          60.6337   86.3896    9.0589 C.3     1  UNL1        0.0365
      2 C          61.2311   87.5062    9.8628 C.ar    1  UNL1        0.0382
      3 C          60.9433   88.9318    9.4958 C.ar    1  UNL1        0.1416
      4 CL         60.0580   89.2409    8.3249 Cl      1  UNL1       -0.0614
      5 N          61.5407   90.0485   10.2996 N.ar    1  UNL1       -0.1829
      6 C          62.4259   89.7396   11.4704 C.ar    1  UNL1        0.3218
      7 N          62.7138   88.3139   11.8374 N.ar    1  UNL1       -0.1798
      8 C          62.1163   87.1973   11.0336 C.ar    1  UNL1        0.1316
      9 N          62.4042   85.7716   11.4006 N.pl3   1  UNL1       -0.3144
     10 H          62.1055   85.0417   10.8113 H       1  UNL1        0.1485
     11 C          63.1471   85.4581   12.6654 C.3     1  UNL1        0.1185
     12 C          62.9999   84.1103   13.3073 C.ar    1  UNL1        0.0370
     13 C          63.0946   83.8179   14.7755 C.ar    1  UNL1        0.1190
     14 N          62.8853   82.3453   14.9692 N.ar    1  UNL1       -0.1679
     15 N          62.6613   81.7275   13.6207 N.ar    1  UNL1       -0.2476
     16 C          62.4105   80.2741   13.3474 C.3     1  UNL1        0.1537
     17 C          62.7321   82.8185   12.5936 C.ar    1  UNL1        0.0941
     18 O          63.0234   90.8562   12.2742 O.3     1  UNL1       -0.4467
     19 C          64.0398   90.5559   13.3357 C.3     1  UNL1        0.2090
     20 C          65.3075   91.3545   13.4076 C.3     1  UNL1        0.0498
     21 C          66.4869   91.8516   14.1897 C.3     1  UNL1        0.0101
     22 C          66.3237   92.2405   12.7502 C.3     1  UNL1        0.0440
     23 C          66.8161   92.9766   11.5395 C.ar    1  UNL1        0.0588
     24 C          67.5923   92.2478   10.4829 C.ar    1  UNL1        0.0147
     25 C          68.0847   92.9839    9.2722 C.ar    1  UNL1        0.0028
     26 C          67.8010   94.4488    9.1181 C.ar    1  UNL1        0.0207
     27 C          67.0247   95.1775   10.1748 C.ar    1  UNL1        0.0984
     28 N          66.5323   94.4414   11.3854 N.ar    1  UNL1       -0.2482
@<TRIPOS>BOND
     1     1     2    1
     2     2     3   ar
     3     3     4    1
     4     3     5   ar
     5     5     6   ar
     6     6    18    1
     7    18    19    1
     8    20    19    1
     9    20    21    1
    10    21    22    1
    11    22    23    1
    12    23    24   ar
    13    24    25   ar
    14    25    26   ar
    15    26    27   ar
    16    27    28   ar
    17     6     7   ar
    18     7     8   ar
    19     8     9    1
    20     9    11    1
    21    11    12    1
    22    12    13   ar
    23    13    14   ar
    24    14    15   ar
    25    15    16    1
    26    15    17   ar
    27     8     2   ar
    28    17    12   ar
    29    22    20    1
    30    28    23   ar
    31     9    10    1
@<TRIPOS>MOLECULE
*****
 28 31 0 0 0
SMALL
GASTEIGER

@<TRIPOS>ATOM
      1 C          62.8976   91.0740   10.1156 C.3     1  UNL1        0.0365
      2 C          63.2326   90.2715   11.3378 C.ar    1  UNL1        0.0382
      3 C          62.7814   88.8451   11.4455 C.ar    1  UNL1        0.1416
      4 CL         61.9950   88.2211   10.3309 Cl      1  UNL1       -0.0614
      5 N          63.1164   88.0427   12.6677 N.ar    1  UNL1       -0.1829
      6 C          63.9027   88.6666   13.7823 C.ar    1  UNL1        0.3218
      7 N          64.3540   90.0930   13.6746 N.ar    1  UNL1       -0.1798
      8 C          64.0190   90.8955   12.4524 C.ar    1  UNL1        0.1316
      9 N          64.4703   92.3220   12.3448 N.pl3   1  UNL1       -0.3144
     10 H          63.8056   93.0441   12.2681 H       1  UNL1        0.1485
     11 C          65.9343   92.6481   12.3541 C.3     1  UNL1        0.1185
     12 C          66.5838   93.2171   11.1274 C.ar    1  UNL1        0.0370
     13 C          67.4918   92.4801   10.1881 C.ar    1  UNL1        0.1190
     14 N          67.9084   93.4305    9.1050 N.ar    1  UNL1       -0.1679
     15 N          67.2579   94.7549    9.3749 N.ar    1  UNL1       -0.2476
     16 C          67.4009   95.9936    8.5412 C.3     1  UNL1        0.1537
     17 C          66.4392   94.6230   10.6249 C.ar    1  UNL1        0.0941
     18 O          64.2378   87.8642   15.0045 O.3     1  UNL1       -0.4467
     19 C          64.6153   86.4185   14.8723 C.3     1  UNL1        0.2090
     20 C          63.5978   85.3499   15.1421 C.3     1  UNL1        0.0498
     21 C          62.4704   84.8092   15.9706 C.3     1  UNL1        0.0101
     22 C          62.9629   84.0399   14.7809 C.3     1  UNL1        0.0440
     23 C          62.8807   82.8393   13.8853 C.ar    1  UNL1        0.0588
     24 C          63.1075   82.9871   12.4100 C.ar    1  UNL1        0.0147
     25 C          63.0253   81.7865   11.5145 C.ar    1  UNL1        0.0028
     26 C          62.7162   80.4381   12.0944 C.ar    1  UNL1        0.0207
     27 C          62.4894   80.2903   13.5698 C.ar    1  UNL1        0.0984
     28 N          62.5716   81.4909   14.4652 N.ar    1  UNL1       -0.2482
@<TRIPOS>BOND
     1     1     2    1
     2     2     3   ar
     3     3     4    1
     4     3     5   ar
     5     5     6   ar
     6     6    18    1
     7    18    19    1
     8    20    19    1
     9    20    21    1
    10    21    22    1
    11    22    23    1
    12    23    24   ar
    13    24    25   ar
    14    25    26   ar
    15    26    27   ar
    16    27    28   ar
    17     6     7   ar
    18     7     8   ar
    19     8     9    1
    20     9    11    1
    21    11    12    1
    22    12    13   ar
    23    13    14   ar
    24    14    15   ar
    25    15    16    1
    26    15    17   ar
    27     8     2   ar
    28    17    12   ar
    29    22    20    1
    30    28    23   ar
    31     9    10    1
@<TRIPOS>MOLECULE
*****
 28 31 0 0 0
SMALL
GASTEIGER

@<TRIPOS>ATOM
      1 C          65.5097   90.8919   14.5763 C.3     1  UNL1        0.0365
      2 C          64.5999   90.5350   13.4384 C.ar    1  UNL1        0.0382
      3 C          63.8970   89.2100   13.4273 C.ar    1  UNL1        0.1416
      4 CL         64.1041   88.2416   14.5541 Cl      1  UNL1       -0.0614
      5 N          62.9872   88.8531   12.2894 N.ar    1  UNL1       -0.1829
      6 C          62.7801   89.8214   11.1626 C.ar    1  UNL1        0.3218
      7 N          63.4829   91.1465   11.1738 N.ar    1  UNL1       -0.1798
      8 C          64.3928   91.5033   12.3117 C.ar    1  UNL1        0.1316
      9 N          65.0957   92.8284   12.3228 N.pl3   1  UNL1       -0.3144
     10 H          64.6093   93.6413   12.5910 H       1  UNL1        0.1485
     11 C          66.5394   92.9150   11.9253 C.3     1  UNL1        0.1185
     12 C          66.9354   93.6863   10.7012 C.ar    1  UNL1        0.0370
     13 C          67.6344   93.1299    9.4963 C.ar    1  UNL1        0.1190
     14 N          67.8329   94.2491    8.5176 N.ar    1  UNL1       -0.1679
     15 N          67.2564   95.4973    9.1175 N.ar    1  UNL1       -0.2476
     16 C          67.2380   96.8549    8.4799 C.3     1  UNL1        0.1537
     17 C          66.7017   95.1494   10.4672 C.ar    1  UNL1        0.0941
     18 O          61.8702   89.4646   10.0247 O.3     1  UNL1       -0.4467
     19 C          61.0917   88.1829   10.0605 C.3     1  UNL1        0.2090
     20 C          61.7768   86.8808    9.7689 C.3     1  UNL1        0.0498
     21 C          62.3354   85.8994    8.7816 C.3     1  UNL1        0.0101
     22 C          62.4049   85.6069   10.2511 C.3     1  UNL1        0.0440
     23 C          62.8077   84.7025   11.3781 C.ar    1  UNL1        0.0588
     24 C          63.4919   83.3999   11.0865 C.ar    1  UNL1        0.0147
     25 C          63.8947   82.4955   12.2134 C.ar    1  UNL1        0.0028
     26 C          63.6133   82.8938   13.6319 C.ar    1  UNL1        0.0207
     27 C          62.9291   84.1965   13.9235 C.ar    1  UNL1        0.0984
     28 N          62.5263   85.1008   12.7966 N.ar    1  UNL1       -0.2482
@<TRIPOS>BOND
     1     1     2    1
     2     2     3   ar
     3     3     4    1
     4     3     5   ar
     5     5     6   ar
     6     6    18    1
     7    18    19    1
     8    20    19    1
     9    20    21    1
    10    21    22    1
    11    22    23    1
    12    23    24   ar
    13    24    25   ar
    14    25    26   ar
    15    26    27   ar
    16    27    28   ar
    17     6     7   ar
    18     7     8   ar
    19     8     9    1
    20     9    11    1
    21    11    12    1
    22    12    13   ar
    23    13    14   ar
    24    14    15   ar
    25    15    16    1
    26    15    17   ar
    27     8     2   ar
    28    17    12   ar
    29    22    20    1
    30    28    23   ar
    31     9    10    1
@<TRIPOS>MOLECULE
*****
 28 31 0 0 0
SMALL
GASTEIGER

@<TRIPOS>ATOM
      1 C          63.0700   89.4271   16.8554 C.3     1  UNL1        0.0365
      2 C          63.4126   88.1173   16.2096 C.ar    1  UNL1        0.0382
      3 C          63.1902   86.8336   16.9531 C.ar    1  UNL1        0.1416
      4 CL         62.6252   86.8598   18.3424 Cl      1  UNL1       -0.0614
      5 N          63.5328   85.5238   16.3073 N.ar    1  UNL1       -0.1829
      6 C          64.0978   85.4976   14.9181 C.ar    1  UNL1        0.3218
      7 N          64.3202   86.7813   14.1746 N.ar    1  UNL1       -0.1798
      8 C          63.9776   88.0911   14.8204 C.ar    1  UNL1        0.1316
      9 N          64.2000   89.3748   14.0768 N.pl3   1  UNL1       -0.3144
     10 H          63.7146   89.5482   13.2380 H       1  UNL1        0.1485
     11 C          65.1618   90.3941   14.6113 C.3     1  UNL1        0.1185
     12 C          65.7490   91.4250   13.6933 C.ar    1  UNL1        0.0370
     13 C          67.1645   91.9209   13.7149 C.ar    1  UNL1        0.1190
     14 N          67.3141   92.9433   12.6276 N.ar    1  UNL1       -0.1679
     15 N          65.9910   93.0793   11.9339 N.ar    1  UNL1       -0.2476
     16 C          65.6883   93.9932   10.7836 C.3     1  UNL1        0.1537
     17 C          65.0237   92.1409   12.5927 C.ar    1  UNL1        0.0941
     18 O          64.4405   84.1878   14.2723 O.3     1  UNL1       -0.4467
     19 C          63.4281   83.4861   13.4164 C.3     1  UNL1        0.2090
     20 C          63.3085   83.8303   11.9613 C.3     1  UNL1        0.0498
     21 C          63.6856   83.5782   10.5316 C.3     1  UNL1        0.0101
     22 C          62.7242   84.6785   10.8709 C.3     1  UNL1        0.0440
     23 C          61.8318   85.8035   10.4372 C.ar    1  UNL1        0.0588
     24 C          61.5549   86.0219    8.9793 C.ar    1  UNL1        0.0147
     25 C          60.6625   87.1469    8.5456 C.ar    1  UNL1        0.0028
     26 C          60.0470   88.0535    9.5699 C.ar    1  UNL1        0.0207
     27 C          60.3239   87.8351   11.0279 C.ar    1  UNL1        0.0984
     28 N          61.2163   86.7101   11.4615 N.ar    1  UNL1       -0.2482
@<TRIPOS>BOND
     1     1     2    1
     2     2     3   ar
     3     3     4    1
     4     3     5   ar
     5     5     6   ar
     6     6    18    1
     7    18    19    1
     8    20    19    1
     9    20    21    1
    10    21    22    1
    11    22    23    1
    12    23    24   ar
    13    24    25   ar
    14    25    26   ar
    15    26    27   ar
    16    27    28   ar
    17     6     7   ar
    18     7     8   ar
    19     8     9    1
    20     9    11    1
    21    11    12    1
    22    12    13   ar
    23    13    14   ar
    24    14    15   ar
    25    15    16    1
    26    15    17   ar
    27     8     2   ar
    28    17    12   ar
    29    22    20    1
    30    28    23   ar
    31     9    10    1
@<TRIPOS>MOLECULE
*****
 28 31 0 0 0
SMALL
GASTEIGER

@<TRIPOS>ATOM
      1 C          62.7325   84.3950   11.9934 C.3     1  UNL1        0.0365
      2 C          63.1639   85.6625   12.6698 C.ar    1  UNL1        0.0382
      3 C          63.8734   85.6040   13.9900 C.ar    1  UNL1        0.1416
      4 CL         64.1516   84.2780   14.6339 Cl      1  UNL1       -0.0614
      5 N          64.3048   86.8714   14.6664 N.ar    1  UNL1       -0.1829
      6 C          64.0267   88.1973   14.0226 C.ar    1  UNL1        0.3218
      7 N          63.3172   88.2558   12.7023 N.ar    1  UNL1       -0.1798
      8 C          62.8858   86.9884   12.0259 C.ar    1  UNL1        0.1316
      9 N          62.1762   87.0469   10.7056 N.pl3   1  UNL1       -0.3144
     10 H          62.6600   86.8280    9.8766 H       1  UNL1        0.1485
     11 C          60.7295   87.4389   10.6484 C.3     1  UNL1        0.1185
     12 C          60.0828   87.7294    9.3264 C.ar    1  UNL1        0.0370
     13 C          59.2012   86.7951    8.5519 C.ar    1  UNL1        0.1190
     14 N          58.7778   87.4934    7.2937 N.ar    1  UNL1       -0.1679
     15 N          59.3978   88.8594    7.2906 N.ar    1  UNL1       -0.2476
     16 C          59.2390   89.8972    6.2193 C.3     1  UNL1        0.1537
     17 C          60.2044   89.0052    8.5470 C.ar    1  UNL1        0.0941
     18 O          64.4581   89.4647   14.6990 O.3     1  UNL1       -0.4467
     19 C          64.5392   90.7421   13.9169 C.3     1  UNL1        0.2090
     20 C          65.8626   91.4219   13.7259 C.3     1  UNL1        0.0498
     21 C          67.2085   91.8172   14.2571 C.3     1  UNL1        0.0101
     22 C          66.8089   92.2039   12.8640 C.3     1  UNL1        0.0440
     23 C          67.1245   92.8786   11.5620 C.ar    1  UNL1        0.0588
     24 C          67.8528   92.1291   10.4860 C.ar    1  UNL1        0.0147
     25 C          68.1684   92.8039    9.1840 C.ar    1  UNL1        0.0028
     26 C          67.7557   94.2282    8.9580 C.ar    1  UNL1        0.0207
     27 C          67.0273   94.9777   10.0341 C.ar    1  UNL1        0.0984
     28 N          66.7118   94.3029   11.3360 N.ar    1  UNL1       -0.2482
@<TRIPOS>BOND
     1     1     2    1
     2     2     3   ar
     3     3     4    1
     4     3     5   ar
     5     5     6   ar
     6     6    18    1
     7    18    19    1
     8    20    19    1
     9    20    21    1
    10    21    22    1
    11    22    23    1
    12    23    24   ar
    13    24    25   ar
    14    25    26   ar
    15    26    27   ar
    16    27    28   ar
    17     6     7   ar
    18     7     8   ar
    19     8     9    1
    20     9    11    1
    21    11    12    1
    22    12    13   ar
    23    13    14   ar
    24    14    15   ar
    25    15    16    1
    26    15    17   ar
    27     8     2   ar
    28    17    12   ar
    29    22    20    1
    30    28    23   ar
    31     9    10    1
@<TRIPOS>MOLECULE
*****
 28 31 0 0 0
SMALL
GASTEIGER

@<TRIPOS>ATOM
      1 C          63.1336   82.0549   10.8068 C.3     1  UNL1        0.0365
      2 C          62.9644   82.8310   12.0792 C.ar    1  UNL1        0.0382
      3 C          62.9160   82.1126   13.3951 C.ar    1  UNL1        0.1416
      4 CL         63.0368   80.6181   13.4386 Cl      1  UNL1       -0.0614
      5 N          62.7467   82.8887   14.6675 N.ar    1  UNL1       -0.1829
      6 C          62.6258   84.3832   14.6241 C.ar    1  UNL1        0.3218
      7 N          62.6742   85.1015   13.3082 N.ar    1  UNL1       -0.1798
      8 C          62.8435   84.3255   12.0358 C.ar    1  UNL1        0.1316
      9 N          62.8919   85.0439   10.7199 N.pl3   1  UNL1       -0.3144
     10 H          63.7564   85.3349   10.3494 H       1  UNL1        0.1485
     11 C          61.6232   85.3191    9.9685 C.3     1  UNL1        0.1185
     12 C          61.0294   86.6966    9.9784 C.ar    1  UNL1        0.0370
     13 C          60.6333   87.4946    8.7716 C.ar    1  UNL1        0.1190
     14 N          60.0866   88.8091    9.2441 N.ar    1  UNL1       -0.1679
     15 N          60.1447   88.8234   10.7430 N.ar    1  UNL1       -0.2476
     16 C          59.6984   89.9462   11.6319 C.3     1  UNL1        0.1537
     17 C          60.7274   87.5177   11.1968 C.ar    1  UNL1        0.0941
     18 O          62.4566   85.1592   15.8965 O.3     1  UNL1       -0.4467
     19 C          63.5720   86.0264   16.4001 C.3     1  UNL1        0.2090
     20 C          63.3864   87.5124   16.4865 C.3     1  UNL1        0.0498
     21 C          62.9911   88.7287   17.2702 C.3     1  UNL1        0.0101
     22 C          63.4600   88.8697   15.8523 C.3     1  UNL1        0.0440
     23 C          63.7732   89.7348   14.6675 C.ar    1  UNL1        0.0588
     24 C          64.9469   90.6678   14.7095 C.ar    1  UNL1        0.0147
     25 C          65.2601   91.5329   13.5247 C.ar    1  UNL1        0.0028
     26 C          64.3995   91.4649   12.2980 C.ar    1  UNL1        0.0207
     27 C          63.2258   90.5318   12.2561 C.ar    1  UNL1        0.0984
     28 N          62.9126   89.6668   13.4408 N.ar    1  UNL1       -0.2482
@<TRIPOS>BOND
     1     1     2    1
     2     2     3   ar
     3     3     4    1
     4     3     5   ar
     5     5     6   ar
     6     6    18    1
     7    18    19    1
     8    20    19    1
     9    20    21    1
    10    21    22    1
    11    22    23    1
    12    23    24   ar
    13    24    25   ar
    14    25    26   ar
    15    26    27   ar
    16    27    28   ar
    17     6     7   ar
    18     7     8   ar
    19     8     9    1
    20     9    11    1
    21    11    12    1
    22    12    13   ar
    23    13    14   ar
    24    14    15   ar
    25    15    16    1
    26    15    17   ar
    27     8     2   ar
    28    17    12   ar
    29    22    20    1
    30    28    23   ar
    31     9    10    1
@<TRIPOS>MOLECULE
*****
 28 31 0 0 0
SMALL
GASTEIGER

@<TRIPOS>ATOM
      1 C          63.3564   84.8416   16.4783 C.3     1  UNL1        0.0365
      2 C          63.4381   86.3096   16.1811 C.ar    1  UNL1        0.0382
      3 C          63.0607   87.3099   17.2332 C.ar    1  UNL1        0.1416
      4 CL         62.6017   86.8423   18.5825 Cl      1  UNL1       -0.0614
      5 N          63.1424   88.7779   16.9360 N.ar    1  UNL1       -0.1829
      6 C          63.6015   89.2456   15.5867 C.ar    1  UNL1        0.3218
      7 N          63.9788   88.2452   14.5346 N.ar    1  UNL1       -0.1798
      8 C          63.8971   86.7772   14.8319 C.ar    1  UNL1        0.1316
      9 N          64.2745   85.7769   13.7797 N.pl3   1  UNL1       -0.3144
     10 H          65.1968   85.4357   13.7331 H       1  UNL1        0.1485
     11 C          63.2466   85.2963   12.7986 C.3     1  UNL1        0.1185
     12 C          63.1118   83.8303   12.5112 C.ar    1  UNL1        0.0370
     13 C          63.4347   83.1531   11.2123 C.ar    1  UNL1        0.1190
     14 N          63.1529   81.6884   11.3706 N.ar    1  UNL1       -0.1679
     15 N          62.6557   81.4602   12.7673 N.ar    1  UNL1       -0.2476
     16 C          62.2545   80.1401   13.3558 C.3     1  UNL1        0.1537
     17 C          62.6303   82.7841   13.4723 C.ar    1  UNL1        0.0941
     18 O          63.6831   90.7135   15.2895 O.3     1  UNL1       -0.4467
     19 C          64.6007   91.2107   14.2121 C.3     1  UNL1        0.2090
     20 C          64.1551   91.1924   12.7799 C.3     1  UNL1        0.0498
     21 C          64.2565   91.7241   11.3810 C.3     1  UNL1        0.0101
     22 C          63.2820   90.6288   11.6983 C.3     1  UNL1        0.0440
     23 C          62.2151   89.6711   11.2570 C.ar    1  UNL1        0.0588
     24 C          62.4493   88.7814   10.0723 C.ar    1  UNL1        0.0147
     25 C          61.3825   87.8237    9.6310 C.ar    1  UNL1        0.0028
     26 C          60.0815   87.7556   10.3744 C.ar    1  UNL1        0.0207
     27 C          59.8473   88.6454   11.5592 C.ar    1  UNL1        0.0984
     28 N          60.9141   89.6030   12.0005 N.ar    1  UNL1       -0.2482
@<TRIPOS>BOND
     1     1     2    1
     2     2     3   ar
     3     3     4    1
     4     3     5   ar
     5     5     6   ar
     6     6    18    1
     7    18    19    1
     8    20    19    1
     9    20    21    1
    10    21    22    1
    11    22    23    1
    12    23    24   ar
    13    24    25   ar
    14    25    26   ar
    15    26    27   ar
    16    27    28   ar
    17     6     7   ar
    18     7     8   ar
    19     8     9    1
    20     9    11    1
    21    11    12    1
    22    12    13   ar
    23    13    14   ar
    24    14    15   ar
    25    15    16    1
    26    15    17   ar
    27     8     2   ar
    28    17    12   ar
    29    22    20    1
    30    28    23   ar
    31     9    10    1
