@<TRIPOS>MOLECULE
*****
 22 25 0 0 0
SMALL
GASTEIGER

@<TRIPOS>ATOM
      1 O          64.0862   85.8659   13.6600 O.2     1  UNL1       -0.2448
      2 C          63.1358   85.4579   12.5738 C.2     1  UNL1        0.3428
      3 C          63.2408   84.0939   11.9585 C.2     1  UNL1        0.0963
      4 C          63.7678   83.7827   10.5891 C.2     1  UNL1        0.1049
      5 N          63.6900   82.2981   10.3889 N.2     1  UNL1       -0.2476
      6 C          63.1150   81.6919   11.6346 C.2     1  UNL1        0.0641
      7 C          62.8083   80.2726   12.0109 C.3     1  UNL1        0.0718
      8 C          62.2240   79.9633   13.3573 C.2     1  UNL1       -0.0193
      9 C          61.9464   81.0731   14.3274 C.2     1  UNL1        0.0026
     10 C          62.2531   82.4924   13.9511 C.2     1  UNL1        0.0356
     11 BR         61.9754   83.6023   14.9212 Br      1  UNL1       -0.0490
     12 C          62.8374   82.8018   12.6047 C.2     1  UNL1        0.0278
     13 O          62.0801   86.4139   12.1028 O.3     1  UNL1       -0.4454
     14 C          62.2482   87.1332   10.7973 C.3     1  UNL1        0.2087
     15 C          61.4040   86.7527    9.6173 C.3     1  UNL1        0.0445
     16 C          59.9967   87.2600    9.5071 C.3     1  UNL1        0.0210
     17 C          59.1525   86.8795    8.3271 C.3     1  UNL1        0.0722
     18 N          59.7156   85.9916    7.2571 N.3     1  UNL1       -0.2727
     19 C          61.1229   85.4843    7.3673 C.3     1  UNL1        0.0722
     20 C          61.9671   85.8649    8.5474 C.3     1  UNL1        0.0210
     21 C          60.2164   86.1731    7.8851 C.3     1  UNL1        0.0722
     22 C          60.9798   86.5171    8.9521 C.3     1  UNL1        0.0210
@<TRIPOS>BOND
     1     1     2    2
     2     2    13    1
     3    13    14    1
     4    14    15    1
     5    15    16    1
     6    16    17    1
     7    17    18    1
     8    18    19    1
     9    19    20    1
    10    18    21    1
    11    21    22    1
    12     2     3    1
    13     3     4    2
    14     4     5    1
    15     5     6    2
    16     6     7    1
    17     7     8    1
    18     8     9    2
    19     9    10    1
    20    10    11    1
    21    10    12    2
    22    20    15    1
    23    12     3    1
    24    22    15    1
    25    12     6    1
@<TRIPOS>MOLECULE
*****
 22 25 0 0 0
SMALL
GASTEIGER

@<TRIPOS>ATOM
      1 O          60.9607   89.4640   12.3717 O.2     1  UNL1       -0.2448
      2 C          62.3280   89.2653   11.7878 C.2     1  UNL1        0.3428
      3 C          63.2255   90.4456   11.5611 C.2     1  UNL1        0.0963
      4 C          63.2612   91.3025   10.3305 C.2     1  UNL1        0.1049
      5 N          64.3027   92.3626   10.5340 N.2     1  UNL1       -0.2476
      6 C          64.9107   92.1609   11.8903 C.2     1  UNL1        0.0641
      7 C          65.9845   92.9030   12.6294 C.3     1  UNL1        0.0718
      8 C          66.3925   92.4602   14.0032 C.2     1  UNL1       -0.0193
      9 C          65.7268   91.2754   14.6380 C.2     1  UNL1        0.0026
     10 C          64.6530   90.5333   13.8989 C.2     1  UNL1        0.0356
     11 BR         63.9872   89.3485   14.5337 Br      1  UNL1       -0.0490
     12 C          64.2449   90.9760   12.5251 C.2     1  UNL1        0.0278
     13 O          62.7978   87.8862   11.4307 O.3     1  UNL1       -0.4454
     14 C          61.8020   86.7809   11.2387 C.3     1  UNL1        0.2087
     15 C          61.1619   86.5727    9.8983 C.3     1  UNL1        0.0445
     16 C          61.8615   85.7573    8.8515 C.3     1  UNL1        0.0210
     17 C          61.2213   85.5491    7.5111 C.3     1  UNL1        0.0722
     18 N          59.8815   86.1563    7.2173 N.3     1  UNL1       -0.2727
     19 C          59.1819   86.9717    8.2641 C.3     1  UNL1        0.0722
     20 C          59.8221   87.1799    9.6046 C.3     1  UNL1        0.0210
     21 C          60.1927   86.2979    7.9664 C.3     1  UNL1        0.0722
     22 C          60.7715   86.4863    9.1785 C.3     1  UNL1        0.0210
@<TRIPOS>BOND
     1     1     2    2
     2     2    13    1
     3    13    14    1
     4    14    15    1
     5    15    16    1
     6    16    17    1
     7    17    18    1
     8    18    19    1
     9    19    20    1
    10    18    21    1
    11    21    22    1
    12     2     3    1
    13     3     4    2
    14     4     5    1
    15     5     6    2
    16     6     7    1
    17     7     8    1
    18     8     9    2
    19     9    10    1
    20    10    11    1
    21    10    12    2
    22    20    15    1
    23    12     3    1
    24    22    15    1
    25    12     6    1
@<TRIPOS>MOLECULE
*****
 22 25 0 0 0
SMALL
GASTEIGER

@<TRIPOS>ATOM
      1 O          61.0302   89.5609   12.5476 O.2     1  UNL1       -0.2448
      2 C          62.4717   89.2657   12.2570 C.2     1  UNL1        0.3428
      3 C          63.5515   90.0074   12.9877 C.2     1  UNL1        0.0963
      4 C          64.0192   89.7319   14.3860 C.2     1  UNL1        0.1049
      5 N          65.1098   90.7092   14.7109 N.2     1  UNL1       -0.2476
      6 C          65.3160   91.5887   13.5135 C.2     1  UNL1        0.0641
      7 C          66.2564   92.7284   13.2553 C.3     1  UNL1        0.0718
      8 C          66.2336   93.4345   11.9320 C.2     1  UNL1       -0.0193
      9 C          65.2704   93.0007   10.8670 C.2     1  UNL1        0.0026
     10 C          64.3301   91.8610   11.1252 C.2     1  UNL1        0.0356
     11 BR         63.3670   91.4273   10.0602 Br      1  UNL1       -0.0490
     12 C          64.3529   91.1550   12.4484 C.2     1  UNL1        0.0278
     13 O          62.8337   88.2285   11.2354 O.3     1  UNL1       -0.4454
     14 C          62.0140   86.9782   11.1131 C.3     1  UNL1        0.2087
     15 C          61.3536   86.6391    9.8097 C.3     1  UNL1        0.0445
     16 C          62.0815   85.8100    8.7934 C.3     1  UNL1        0.0210
     17 C          61.4210   85.4709    7.4901 C.3     1  UNL1        0.0722
     18 N          60.0326   85.9608    7.2029 N.3     1  UNL1       -0.2727
     19 C          59.3047   86.7898    8.2192 C.3     1  UNL1        0.0722
     20 C          59.9652   87.1290    9.5226 C.3     1  UNL1        0.0210
     21 C          60.3535   86.1722    7.9312 C.3     1  UNL1        0.0722
     22 C          60.9506   86.4789    9.1098 C.3     1  UNL1        0.0210
@<TRIPOS>BOND
     1     1     2    2
     2     2    13    1
     3    13    14    1
     4    14    15    1
     5    15    16    1
     6    16    17    1
     7    17    18    1
     8    18    19    1
     9    19    20    1
    10    18    21    1
    11    21    22    1
    12     2     3    1
    13     3     4    2
    14     4     5    1
    15     5     6    2
    16     6     7    1
    17     7     8    1
    18     8     9    2
    19     9    10    1
    20    10    11    1
    21    10    12    2
    22    20    15    1
    23    12     3    1
    24    22    15    1
    25    12     6    1
@<TRIPOS>MOLECULE
*****
 22 25 0 0 0
SMALL
GASTEIGER

@<TRIPOS>ATOM
      1 O          63.7149   91.5490   14.6459 O.2     1  UNL1       -0.2448
      2 C          64.0393   90.8354   13.3671 C.2     1  UNL1        0.3428
      3 C          63.7916   89.3608   13.2474 C.2     1  UNL1        0.0963
      4 C          64.1971   88.3150   14.2434 C.2     1  UNL1        0.1049
      5 N          63.7511   86.9810   13.7222 N.2     1  UNL1       -0.2476
      6 C          63.0700   87.2024   12.4042 C.2     1  UNL1        0.0641
      7 C          62.4303   86.2547   11.4334 C.3     1  UNL1        0.0718
      8 C          61.8156   86.7778   10.1691 C.2     1  UNL1       -0.0193
      9 C          61.8406   88.2486    9.8757 C.2     1  UNL1        0.0026
     10 C          62.4803   89.1963   10.8465 C.2     1  UNL1        0.0356
     11 BR         62.5054   90.6671   10.5531 Br      1  UNL1       -0.0490
     12 C          63.0951   88.6732   12.1108 C.2     1  UNL1        0.0278
     13 O          64.6113   91.5964   12.2079 O.3     1  UNL1       -0.4454
     14 C          65.8259   92.4552   12.4005 C.3     1  UNL1        0.2087
     15 C          66.5016   93.0757   11.2138 C.3     1  UNL1        0.0445
     16 C          67.4956   92.2834   10.4174 C.3     1  UNL1        0.0210
     17 C          68.1712   92.9040    9.2306 C.3     1  UNL1        0.0722
     18 N          67.8528   94.3169    8.8402 N.3     1  UNL1       -0.2727
     19 C          66.8588   95.1092    9.6365 C.3     1  UNL1        0.0722
     20 C          66.1832   94.4886   10.8234 C.3     1  UNL1        0.0210
     21 C          67.4572   94.0196    9.4983 C.3     1  UNL1        0.0722
     22 C          66.8462   93.4586   10.5714 C.3     1  UNL1        0.0210
@<TRIPOS>BOND
     1     1     2    2
     2     2    13    1
     3    13    14    1
     4    14    15    1
     5    15    16    1
     6    16    17    1
     7    17    18    1
     8    18    19    1
     9    19    20    1
    10    18    21    1
    11    21    22    1
    12     2     3    1
    13     3     4    2
    14     4     5    1
    15     5     6    2
    16     6     7    1
    17     7     8    1
    18     8     9    2
    19     9    10    1
    20    10    11    1
    21    10    12    2
    22    20    15    1
    23    12     3    1
    24    22    15    1
    25    12     6    1
@<TRIPOS>MOLECULE
*****
 22 25 0 0 0
SMALL
GASTEIGER

@<TRIPOS>ATOM
      1 O          60.8323   89.3538   12.3140 O.2     1  UNL1       -0.2448
      2 C          62.1065   89.1963   11.5386 C.2     1  UNL1        0.3428
      3 C          63.0456   90.3571   11.3950 C.2     1  UNL1        0.0963
      4 C          63.1184   91.2928   10.2249 C.2     1  UNL1        0.1049
      5 N          64.1946   92.3000   10.5031 N.2     1  UNL1       -0.2476
      6 C          64.7868   91.9868   11.8452 C.2     1  UNL1        0.0641
      7 C          65.8810   92.6399   12.6365 C.3     1  UNL1        0.0718
      8 C          66.2651   92.0922   13.9791 C.2     1  UNL1       -0.0193
      9 C          65.5549   90.8914   14.5303 C.2     1  UNL1        0.0026
     10 C          64.4608   90.2383   13.7390 C.2     1  UNL1        0.0356
     11 BR         63.7507   89.0375   14.2902 Br      1  UNL1       -0.0490
     12 C          64.0767   90.7860   12.3964 C.2     1  UNL1        0.0278
     13 O          62.4417   87.8778   10.9066 O.3     1  UNL1       -0.4454
     14 C          61.8005   86.6193   11.4118 C.3     1  UNL1        0.2087
     15 C          62.6378   85.4011   11.6662 C.3     1  UNL1        0.0445
     16 C          62.8923   84.4213   10.5593 C.3     1  UNL1        0.0210
     17 C          63.7295   83.2030   10.8139 C.3     1  UNL1        0.0722
     18 N          64.3123   82.9645   12.1753 N.3     1  UNL1       -0.2727
     19 C          64.0578   83.9442   13.2822 C.3     1  UNL1        0.0722
     20 C          63.2205   85.1626   13.0277 C.3     1  UNL1        0.0210
     21 C          63.8600   83.6464   12.0837 C.3     1  UNL1        0.0722
     22 C          63.1029   84.7480   11.8537 C.3     1  UNL1        0.0210
@<TRIPOS>BOND
     1     1     2    2
     2     2    13    1
     3    13    14    1
     4    14    15    1
     5    15    16    1
     6    16    17    1
     7    17    18    1
     8    18    19    1
     9    19    20    1
    10    18    21    1
    11    21    22    1
    12     2     3    1
    13     3     4    2
    14     4     5    1
    15     5     6    2
    16     6     7    1
    17     7     8    1
    18     8     9    2
    19     9    10    1
    20    10    11    1
    21    10    12    2
    22    20    15    1
    23    12     3    1
    24    22    15    1
    25    12     6    1
@<TRIPOS>MOLECULE
*****
 22 25 0 0 0
SMALL
GASTEIGER

@<TRIPOS>ATOM
      1 O          63.3544   90.8684   16.2859 O.2     1  UNL1       -0.2448
      2 C          63.4902   89.8621   15.1819 C.2     1  UNL1        0.3428
      3 C          63.4424   90.3079   13.7505 C.2     1  UNL1        0.0963
      4 C          62.3791   89.9563   12.7526 C.2     1  UNL1        0.1049
      5 N          62.7290   90.6148   11.4511 N.2     1  UNL1       -0.2476
      6 C          64.0086   91.3733   11.6446 C.2     1  UNL1        0.0641
      7 C          64.8292   92.2122   10.7103 C.3     1  UNL1        0.0718
      8 C          66.0907   92.8614   11.1972 C.2     1  UNL1       -0.0193
      9 C          66.5315   92.6717   12.6184 C.2     1  UNL1        0.0026
     10 C          65.7109   91.8329   13.5526 C.2     1  UNL1        0.0356
     11 BR         66.1518   91.6432   14.9738 Br      1  UNL1       -0.0490
     12 C          64.4494   91.1837   13.0657 C.2     1  UNL1        0.0278
     13 O          63.6739   88.4097   15.5094 O.3     1  UNL1       -0.4454
     14 C          64.5071   87.5391   14.6163 C.3     1  UNL1        0.2087
     15 C          64.0672   86.1376   14.3125 C.3     1  UNL1        0.0445
     16 C          64.3208   85.0405   15.3035 C.3     1  UNL1        0.0210
     17 C          63.8808   83.6390   14.9996 C.3     1  UNL1        0.0722
     18 N          63.1872   83.3346   13.7049 N.3     1  UNL1       -0.2727
     19 C          62.9336   84.4318   12.7140 C.3     1  UNL1        0.0722
     20 C          63.3736   85.8333   13.0178 C.3     1  UNL1        0.0210
     21 C          63.4099   84.1179   13.8270 C.3     1  UNL1        0.0722
     22 C          63.8077   85.3852   14.1016 C.3     1  UNL1        0.0210
@<TRIPOS>BOND
     1     1     2    2
     2     2    13    1
     3    13    14    1
     4    14    15    1
     5    15    16    1
     6    16    17    1
     7    17    18    1
     8    18    19    1
     9    19    20    1
    10    18    21    1
    11    21    22    1
    12     2     3    1
    13     3     4    2
    14     4     5    1
    15     5     6    2
    16     6     7    1
    17     7     8    1
    18     8     9    2
    19     9    10    1
    20    10    11    1
    21    10    12    2
    22    20    15    1
    23    12     3    1
    24    22    15    1
    25    12     6    1
@<TRIPOS>MOLECULE
*****
 22 25 0 0 0
SMALL
GASTEIGER

@<TRIPOS>ATOM
      1 O          60.8752   89.3884   12.2602 O.2     1  UNL1       -0.2448
      2 C          62.3123   89.0005   12.0760 C.2     1  UNL1        0.3428
      3 C          63.3846   89.7021   12.8557 C.2     1  UNL1        0.0963
      4 C          63.8529   89.3397   14.2338 C.2     1  UNL1        0.1049
      5 N          64.9345   90.3030   14.6240 N.2     1  UNL1       -0.2476
      6 C          65.1346   91.2607   13.4870 C.2     1  UNL1        0.0641
      7 C          66.0654   92.4230   13.3056 C.3     1  UNL1        0.0718
      8 C          66.0381   93.2138   12.0314 C.2     1  UNL1       -0.0193
      9 C          65.0802   92.8424   10.9385 C.2     1  UNL1        0.0026
     10 C          64.1495   91.6802   11.1198 C.2     1  UNL1        0.0356
     11 BR         63.1915   91.3088   10.0269 Br      1  UNL1       -0.0490
     12 C          64.1767   90.8893   12.3941 C.2     1  UNL1        0.0278
     13 O          62.6773   87.9107   11.1118 O.3     1  UNL1       -0.4454
     14 C          61.8783   86.6417   11.0769 C.3     1  UNL1        0.2087
     15 C          62.5699   85.3165   11.2008 C.3     1  UNL1        0.0445
     16 C          63.1541   84.6588    9.9858 C.3     1  UNL1        0.0210
     17 C          63.8457   83.3335   10.1098 C.3     1  UNL1        0.0722
     18 N          63.9532   82.6659   11.4487 N.3     1  UNL1       -0.2727
     19 C          63.3691   83.3236   12.6637 C.3     1  UNL1        0.0722
     20 C          62.6774   84.6489   12.5397 C.3     1  UNL1        0.0210
     21 C          63.5650   83.3918   11.4303 C.3     1  UNL1        0.0722
     22 C          62.9396   84.5902   11.3183 C.3     1  UNL1        0.0210
@<TRIPOS>BOND
     1     1     2    2
     2     2    13    1
     3    13    14    1
     4    14    15    1
     5    15    16    1
     6    16    17    1
     7    17    18    1
     8    18    19    1
     9    19    20    1
    10    18    21    1
    11    21    22    1
    12     2     3    1
    13     3     4    2
    14     4     5    1
    15     5     6    2
    16     6     7    1
    17     7     8    1
    18     8     9    2
    19     9    10    1
    20    10    11    1
    21    10    12    2
    22    20    15    1
    23    12     3    1
    24    22    15    1
    25    12     6    1
@<TRIPOS>MOLECULE
*****
 22 25 0 0 0
SMALL
GASTEIGER

@<TRIPOS>ATOM
      1 O          63.8534   86.7686   13.3181 O.2     1  UNL1       -0.2448
      2 C          62.7512   85.8232   12.9426 C.2     1  UNL1        0.3428
      3 C          62.6620   84.4768   13.5979 C.2     1  UNL1        0.0963
      4 C          62.4165   84.2202   15.0552 C.2     1  UNL1        0.1049
      5 N          62.4055   82.7355   15.2689 N.2     1  UNL1       -0.2476
      6 C          62.6441   82.0746   13.9437 C.2     1  UNL1        0.0641
      7 C          62.7376   80.6319   13.5439 C.3     1  UNL1        0.0718
      8 C          62.9895   80.2655   12.1114 C.2     1  UNL1       -0.0193
      9 C          63.1481   81.3417   11.0786 C.2     1  UNL1        0.0026
     10 C          63.0547   82.7844   11.4784 C.2     1  UNL1        0.0356
     11 BR         63.2132   83.8606   10.4456 Br      1  UNL1       -0.0490
     12 C          62.8027   83.1509   12.9109 C.2     1  UNL1        0.0278
     13 O          61.7380   86.2240   11.9115 O.3     1  UNL1       -0.4454
     14 C          62.1218   87.1669   10.8098 C.3     1  UNL1        0.2087
     15 C          61.1596   87.4476    9.6939 C.3     1  UNL1        0.0445
     16 C          60.8327   88.8640    9.3239 C.3     1  UNL1        0.0210
     17 C          59.8705   89.1446    8.2079 C.3     1  UNL1        0.0722
     18 N          59.2352   88.0089    7.4618 N.3     1  UNL1       -0.2727
     19 C          59.5622   86.5925    7.8318 C.3     1  UNL1        0.0722
     20 C          60.5244   86.3118    8.9479 C.3     1  UNL1        0.0210
     21 C          59.7564   87.8056    8.0660 C.3     1  UNL1        0.0722
     22 C          60.6265   87.5518    9.0751 C.3     1  UNL1        0.0210
@<TRIPOS>BOND
     1     1     2    2
     2     2    13    1
     3    13    14    1
     4    14    15    1
     5    15    16    1
     6    16    17    1
     7    17    18    1
     8    18    19    1
     9    19    20    1
    10    18    21    1
    11    21    22    1
    12     2     3    1
    13     3     4    2
    14     4     5    1
    15     5     6    2
    16     6     7    1
    17     7     8    1
    18     8     9    2
    19     9    10    1
    20    10    11    1
    21    10    12    2
    22    20    15    1
    23    12     3    1
    24    22    15    1
    25    12     6    1
@<TRIPOS>MOLECULE
*****
 22 25 0 0 0
SMALL
GASTEIGER

@<TRIPOS>ATOM
      1 O          63.1243   87.8759   16.1331 O.2     1  UNL1       -0.2448
      2 C          64.0220   88.0023   14.9381 C.2     1  UNL1        0.3428
      3 C          64.0503   89.2802   14.1531 C.2     1  UNL1        0.0963
      4 C          64.6019   90.5928   14.6250 C.2     1  UNL1        0.1049
      5 N          64.4245   91.5936   13.5219 N.2     1  UNL1       -0.2476
      6 C          63.7632   90.8995   12.3682 C.2     1  UNL1        0.0641
      7 C          63.3418   91.3847   11.0129 C.3     1  UNL1        0.0718
      8 C          62.6891   90.4401   10.0476 C.2     1  UNL1       -0.0193
      9 C          62.4579   89.0103   10.4378 C.2     1  UNL1        0.0026
     10 C          62.8793   88.5251   11.7931 C.2     1  UNL1        0.0356
     11 BR         62.6480   87.0953   12.1832 Br      1  UNL1       -0.0490
     12 C          63.5319   89.4697   12.7583 C.2     1  UNL1        0.0278
     13 O          64.8914   86.8507   14.5280 O.3     1  UNL1       -0.4454
     14 C          64.7503   85.5235   15.2125 C.3     1  UNL1        0.2087
     15 C          64.0304   84.3995   14.5280 C.3     1  UNL1        0.0445
     16 C          64.5016   83.9115   13.1902 C.3     1  UNL1        0.0210
     17 C          63.7818   82.7875   12.5058 C.3     1  UNL1        0.0722
     18 N          62.5906   82.1515   13.1591 N.3     1  UNL1       -0.2727
     19 C          62.1195   82.6396   14.4970 C.3     1  UNL1        0.0722
     20 C          62.8394   83.7636   15.1814 C.3     1  UNL1        0.0210
     21 C          62.9528   82.7645   13.5728 C.3     1  UNL1        0.0722
     22 C          63.6037   83.7808   14.1917 C.3     1  UNL1        0.0210
@<TRIPOS>BOND
     1     1     2    2
     2     2    13    1
     3    13    14    1
     4    14    15    1
     5    15    16    1
     6    16    17    1
     7    17    18    1
     8    18    19    1
     9    19    20    1
    10    18    21    1
    11    21    22    1
    12     2     3    1
    13     3     4    2
    14     4     5    1
    15     5     6    2
    16     6     7    1
    17     7     8    1
    18     8     9    2
    19     9    10    1
    20    10    11    1
    21    10    12    2
    22    20    15    1
    23    12     3    1
    24    22    15    1
    25    12     6    1
