@<TRIPOS>MOLECULE
*****
 16 16 0 0 0
SMALL
GASTEIGER

@<TRIPOS>ATOM
      1 C          64.2694   91.3463   12.4712 C.ar    1  UNL1        0.1383
      2 C          65.0259   92.4090   11.7308 C.ar    1  UNL1        0.0766
      3 C          66.2945   92.9654   12.3061 C.ar    1  UNL1        0.1754
      4 C          66.8067   92.4589   13.6218 C.ar    1  UNL1        0.1723
      5 C          66.0502   91.3962   14.3622 C.ar    1  UNL1        0.0392
      6 C          64.7816   90.8398   13.7869 C.ar    1  UNL1        0.0224
      7 C          62.7824   90.8004   10.4119 C.3     1  UNL1        0.2525
      8 O          63.0008   90.7899   11.8958 O.3     1  UNL1       -0.4716
      9 O          67.0510   94.0282   11.5657 O.3     1  UNL1       -0.4683
     10 C          66.3582   95.2935   11.1546 C.3     1  UNL1        0.2526
     11 O          68.0754   93.0153   14.1972 O.3     1  UNL1       -0.4684
     12 C          68.1424   93.3821   15.6501 C.3     1  UNL1        0.2526
     13 C          64.0251   89.7770   14.5274 C.3     1  UNL1        0.0939
     14 C          63.4976   90.0532   15.9041 C.2     1  UNL1        0.1556
     15 C          63.1410   88.9145   16.8130 C.3     1  UNL1        0.0726
     16 O          63.3265   91.4681   16.3719 O.2     1  UNL1       -0.2957
@<TRIPOS>BOND
     1     7     8    1
     2     8     1    1
     3     1     2   ar
     4     2     3   ar
     5     3     9    1
     6     9    10    1
     7     3     4   ar
     8     4    11    1
     9    11    12    1
    10     4     5   ar
    11     5     6   ar
    12     6    13    1
    13    13    14    1
    14    14    15    1
    15    14    16    2
    16     6     1   ar
@<TRIPOS>MOLECULE
*****
 16 16 0 0 0
SMALL
GASTEIGER

@<TRIPOS>ATOM
      1 C          64.8669   90.6369   14.2140 C.ar    1  UNL1        0.1383
      2 C          66.1822   91.2161   14.6433 C.ar    1  UNL1        0.0766
      3 C          66.8606   92.2486   13.7924 C.ar    1  UNL1        0.1754
      4 C          66.2236   92.7018   12.5123 C.ar    1  UNL1        0.1723
      5 C          64.9083   92.1225   12.0830 C.ar    1  UNL1        0.0392
      6 C          64.2299   91.0901   12.9338 C.ar    1  UNL1        0.0224
      7 C          63.3394   90.0296   16.2259 C.3     1  UNL1        0.2525
      8 O          64.1885   89.6045   15.0648 O.3     1  UNL1       -0.4716
      9 O          68.1760   92.8278   14.2218 O.3     1  UNL1       -0.4683
     10 C          68.3466   93.3472   15.6186 C.3     1  UNL1        0.2526
     11 O          66.9020   93.7342   11.6615 O.3     1  UNL1       -0.4684
     12 C          66.2045   95.0250   11.3495 C.3     1  UNL1        0.2526
     13 C          62.9145   90.5109   12.5044 C.3     1  UNL1        0.0939
     14 C          62.8768   89.2202   11.7411 C.2     1  UNL1        0.1556
     15 C          62.4765   89.2152   10.2955 C.3     1  UNL1        0.0726
     16 O          63.2394   87.9344   12.4234 O.2     1  UNL1       -0.2957
@<TRIPOS>BOND
     1     7     8    1
     2     8     1    1
     3     1     2   ar
     4     2     3   ar
     5     3     9    1
     6     9    10    1
     7     3     4   ar
     8     4    11    1
     9    11    12    1
    10     4     5   ar
    11     5     6   ar
    12     6    13    1
    13    13    14    1
    14    14    15    1
    15    14    16    2
    16     6     1   ar
@<TRIPOS>MOLECULE
*****
 16 16 0 0 0
SMALL
GASTEIGER

@<TRIPOS>ATOM
      1 C          64.8995   92.0176   12.4631 C.ar    1  UNL1        0.1383
      2 C          63.8702   91.0349   11.9891 C.ar    1  UNL1        0.0766
      3 C          63.4182   89.9271   12.8938 C.ar    1  UNL1        0.1754
      4 C          63.9955   89.8020   14.2726 C.ar    1  UNL1        0.1723
      5 C          65.0248   90.7847   14.7466 C.ar    1  UNL1        0.0392
      6 C          65.4768   91.8925   13.8419 C.ar    1  UNL1        0.0224
      7 C          66.4714   92.8917   10.5883 C.3     1  UNL1        0.2525
      8 O          65.3515   93.1254   11.5584 O.3     1  UNL1       -0.4716
      9 O          62.3888   88.9444   12.4197 O.3     1  UNL1       -0.4683
     10 C          62.2296   88.6740   10.9529 C.3     1  UNL1        0.2526
     11 O          63.5434   88.6942   15.1773 O.3     1  UNL1       -0.4684
     12 C          63.1448   88.9963   16.5914 C.3     1  UNL1        0.2526
     13 C          66.5062   92.8752   14.3160 C.3     1  UNL1        0.0939
     14 C          67.9303   92.4407   14.4974 C.2     1  UNL1        0.1556
     15 C          68.5389   92.4185   15.8682 C.3     1  UNL1        0.0726
     16 O          68.7460   92.0284   13.3079 O.2     1  UNL1       -0.2957
@<TRIPOS>BOND
     1     7     8    1
     2     8     1    1
     3     1     2   ar
     4     2     3   ar
     5     3     9    1
     6     9    10    1
     7     3     4   ar
     8     4    11    1
     9    11    12    1
    10     4     5   ar
    11     5     6   ar
    12     6    13    1
    13    13    14    1
    14    14    15    1
    15    14    16    2
    16     6     1   ar
@<TRIPOS>MOLECULE
*****
 16 16 0 0 0
SMALL
GASTEIGER

@<TRIPOS>ATOM
      1 C          63.6774   85.6699   13.9061 C.ar    1  UNL1        0.1383
      2 C          63.4559   84.8583   12.6643 C.ar    1  UNL1        0.0766
      3 C          63.0889   83.4078   12.7718 C.ar    1  UNL1        0.1754
      4 C          62.9434   82.7690   14.1211 C.ar    1  UNL1        0.1723
      5 C          63.1649   83.5806   15.3629 C.ar    1  UNL1        0.0392
      6 C          63.5319   85.0311   15.2555 C.ar    1  UNL1        0.0224
      7 C          63.3876   87.9855   12.7642 C.3     1  UNL1        0.2525
      8 O          64.0443   87.1203   13.7987 O.3     1  UNL1       -0.4716
      9 O          62.8674   82.5962   11.5299 O.3     1  UNL1       -0.4683
     10 C          63.8795   82.6271   10.4233 C.3     1  UNL1        0.2526
     11 O          62.5764   81.3186   14.2286 O.3     1  UNL1       -0.4684
     12 C          61.1405   80.8984   14.1222 C.3     1  UNL1        0.2526
     13 C          63.7533   85.8427   16.4974 C.3     1  UNL1        0.0939
     14 C          62.7047   86.8118   16.9569 C.2     1  UNL1        0.1556
     15 C          63.0406   88.2663   17.1040 C.3     1  UNL1        0.0726
     16 O          61.3202   86.3265   17.2693 O.2     1  UNL1       -0.2957
@<TRIPOS>BOND
     1     7     8    1
     2     8     1    1
     3     1     2   ar
     4     2     3   ar
     5     3     9    1
     6     9    10    1
     7     3     4   ar
     8     4    11    1
     9    11    12    1
    10     4     5   ar
    11     5     6   ar
    12     6    13    1
    13    13    14    1
    14    14    15    1
    15    14    16    2
    16     6     1   ar
@<TRIPOS>MOLECULE
*****
 16 16 0 0 0
SMALL
GASTEIGER

@<TRIPOS>ATOM
      1 C          65.9790   92.4321   12.8171 C.ar    1  UNL1        0.1383
      2 C          65.1931   91.4390   13.6208 C.ar    1  UNL1        0.0766
      3 C          63.9793   90.7870   13.0278 C.ar    1  UNL1        0.1754
      4 C          63.5515   91.1281   11.6312 C.ar    1  UNL1        0.1723
      5 C          64.3375   92.1212   10.8275 C.ar    1  UNL1        0.0392
      6 C          65.5513   92.7732   11.4205 C.ar    1  UNL1        0.0224
      7 C          67.2112   93.4533   14.8639 C.3     1  UNL1        0.2525
      8 O          67.1928   93.0842   13.4101 O.3     1  UNL1       -0.4716
      9 O          63.1933   89.7938   13.8315 O.3     1  UNL1       -0.4683
     10 C          63.4281   89.6699   15.3078 C.3     1  UNL1        0.2526
     11 O          62.3378   90.4760   11.0382 O.3     1  UNL1       -0.4684
     12 C          62.4509   89.1264   10.3935 C.3     1  UNL1        0.2526
     13 C          66.3373   93.7664   10.6168 C.3     1  UNL1        0.0939
     14 C          67.3830   93.2910    9.6522 C.2     1  UNL1        0.1556
     15 C          68.1242   92.0144    9.9187 C.3     1  UNL1        0.0726
     16 O          67.6875   94.0922    8.4212 O.2     1  UNL1       -0.2957
@<TRIPOS>BOND
     1     7     8    1
     2     8     1    1
     3     1     2   ar
     4     2     3   ar
     5     3     9    1
     6     9    10    1
     7     3     4   ar
     8     4    11    1
     9    11    12    1
    10     4     5   ar
    11     5     6   ar
    12     6    13    1
    13    13    14    1
    14    14    15    1
    15    14    16    2
    16     6     1   ar
@<TRIPOS>MOLECULE
*****
 16 16 0 0 0
SMALL
GASTEIGER

@<TRIPOS>ATOM
      1 C          62.2579   86.0738   10.2574 C.ar    1  UNL1        0.1383
      2 C          62.1921   85.8122   11.7329 C.ar    1  UNL1        0.0766
      3 C          62.7570   84.5416   12.2953 C.ar    1  UNL1        0.1754
      4 C          63.3877   83.5324   11.3821 C.ar    1  UNL1        0.1723
      5 C          63.4535   83.7940    9.9066 C.ar    1  UNL1        0.0392
      6 C          62.8886   85.0647    9.3442 C.ar    1  UNL1        0.0224
      7 C          60.3607   87.8465   10.1670 C.3     1  UNL1        0.2525
      8 O          61.6930   87.3445    9.6950 O.3     1  UNL1       -0.4716
      9 O          62.6912   84.2800   13.7709 O.3     1  UNL1       -0.4683
     10 C          63.7464   84.8379   14.6792 C.3     1  UNL1        0.2526
     11 O          63.9526   82.2618   11.9445 O.3     1  UNL1       -0.4684
     12 C          63.0378   81.1283   12.3027 C.3     1  UNL1        0.2526
     13 C          62.9545   85.3262    7.8686 C.3     1  UNL1        0.0939
     14 C          61.7731   85.0148    6.9983 C.2     1  UNL1        0.1556
     15 C          61.9583   84.2238    5.7374 C.3     1  UNL1        0.0726
     16 O          60.4065   85.4945    7.3890 O.2     1  UNL1       -0.2957
@<TRIPOS>BOND
     1     7     8    1
     2     8     1    1
     3     1     2   ar
     4     2     3   ar
     5     3     9    1
     6     9    10    1
     7     3     4   ar
     8     4    11    1
     9    11    12    1
    10     4     5   ar
    11     5     6   ar
    12     6    13    1
    13    13    14    1
    14    14    15    1
    15    14    16    2
    16     6     1   ar
@<TRIPOS>MOLECULE
*****
 16 16 0 0 0
SMALL
GASTEIGER

@<TRIPOS>ATOM
      1 C          64.7177   91.9813   11.7266 C.ar    1  UNL1        0.1383
      2 C          64.3059   91.2501   12.9699 C.ar    1  UNL1        0.0766
      3 C          64.9637   91.5684   14.2798 C.ar    1  UNL1        0.1754
      4 C          66.0334   92.6179   14.3465 C.ar    1  UNL1        0.1723
      5 C          66.4452   93.3490   13.1032 C.ar    1  UNL1        0.0392
      6 C          65.7874   93.0307   11.7933 C.ar    1  UNL1        0.0224
      7 C          62.8279   90.8079   10.3843 C.3     1  UNL1        0.2525
      8 O          64.0598   91.6630   10.4167 O.3     1  UNL1       -0.4716
      9 O          64.5518   90.8373   15.5232 O.3     1  UNL1       -0.4683
     10 C          63.4764   89.7937   15.4580 C.3     1  UNL1        0.2526
     11 O          66.6912   92.9362   15.6564 O.3     1  UNL1       -0.4684
     12 C          68.0966   93.4597   15.6822 C.3     1  UNL1        0.2526
     13 C          66.1992   93.7618   10.5499 C.3     1  UNL1        0.0939
     14 C          67.5305   93.4785    9.9195 C.2     1  UNL1        0.1556
     15 C          68.0214   92.0656    9.8066 C.3     1  UNL1        0.0726
     16 O          68.3709   94.6081    9.4019 O.2     1  UNL1       -0.2957
@<TRIPOS>BOND
     1     7     8    1
     2     8     1    1
     3     1     2   ar
     4     2     3   ar
     5     3     9    1
     6     9    10    1
     7     3     4   ar
     8     4    11    1
     9    11    12    1
    10     4     5   ar
    11     5     6   ar
    12     6    13    1
    13    13    14    1
    14    14    15    1
    15    14    16    2
    16     6     1   ar
@<TRIPOS>MOLECULE
*****
 16 16 0 0 0
SMALL
GASTEIGER

@<TRIPOS>ATOM
      1 C          62.8242   84.9043   12.1500 C.ar    1  UNL1        0.1383
      2 C          62.1275   85.9900   11.3846 C.ar    1  UNL1        0.0766
      3 C          62.1924   86.0116    9.8862 C.ar    1  UNL1        0.1754
      4 C          62.9538   84.9473    9.1531 C.ar    1  UNL1        0.1723
      5 C          63.6505   83.8616    9.9184 C.ar    1  UNL1        0.0392
      6 C          63.5856   83.8400   11.4169 C.ar    1  UNL1        0.0224
      7 C          63.8720   85.4825   14.4560 C.3     1  UNL1        0.2525
      8 O          62.7593   84.8827   13.6484 O.3     1  UNL1       -0.4716
      9 O          61.4957   87.0974    9.1209 O.3     1  UNL1       -0.4683
     10 C          60.0968   87.4950    9.4884 C.3     1  UNL1        0.2526
     11 O          63.0187   84.9688    7.6546 O.3     1  UNL1       -0.4684
     12 C          61.7709   84.7671    6.8470 C.3     1  UNL1        0.2526
     13 C          64.2824   82.7542   12.1822 C.3     1  UNL1        0.0939
     14 C          63.4804   81.7290   12.9277 C.2     1  UNL1        0.1556
     15 C          62.7116   80.6848   12.1737 C.3     1  UNL1        0.0726
     16 O          63.4471   81.7481   14.4272 O.2     1  UNL1       -0.2957
@<TRIPOS>BOND
     1     7     8    1
     2     8     1    1
     3     1     2   ar
     4     2     3   ar
     5     3     9    1
     6     9    10    1
     7     3     4   ar
     8     4    11    1
     9    11    12    1
    10     4     5   ar
    11     5     6   ar
    12     6    13    1
    13    13    14    1
    14    14    15    1
    15    14    16    2
    16     6     1   ar
@<TRIPOS>MOLECULE
*****
 16 16 0 0 0
SMALL
GASTEIGER

@<TRIPOS>ATOM
      1 C          63.0207   84.9321    9.2376 C.ar    1  UNL1        0.1383
      2 C          63.5747   83.6871    9.8644 C.ar    1  UNL1        0.0766
      3 C          63.4286   83.4615   11.3402 C.ar    1  UNL1        0.1754
      4 C          62.7285   84.4809   12.1890 C.ar    1  UNL1        0.1723
      5 C          62.1745   85.7259   11.5622 C.ar    1  UNL1        0.0392
      6 C          62.3205   85.9515   10.0865 C.ar    1  UNL1        0.0224
      7 C          62.0650   84.7518    6.8284 C.3     1  UNL1        0.2525
      8 O          63.1668   85.1577    7.7619 O.3     1  UNL1       -0.4716
      9 O          63.9827   82.2164   11.9670 O.3     1  UNL1       -0.4683
     10 C          63.0637   81.0905   12.3377 C.3     1  UNL1        0.2526
     11 O          62.5824   84.2552   13.6648 O.3     1  UNL1       -0.4684
     12 C          63.7095   84.6021   14.5917 C.3     1  UNL1        0.2526
     13 C          61.7665   87.1965    9.4596 C.3     1  UNL1        0.0939
     14 C          60.2940   87.4758    9.5212 C.2     1  UNL1        0.1556
     15 C          59.4046   87.0654    8.3851 C.3     1  UNL1        0.0726
     16 O          59.7108   88.1655   10.7188 O.2     1  UNL1       -0.2957
@<TRIPOS>BOND
     1     7     8    1
     2     8     1    1
     3     1     2   ar
     4     2     3   ar
     5     3     9    1
     6     9    10    1
     7     3     4   ar
     8     4    11    1
     9    11    12    1
    10     4     5   ar
    11     5     6   ar
    12     6    13    1
    13    13    14    1
    14    14    15    1
    15    14    16    2
    16     6     1   ar
