@<TRIPOS>MOLECULE
*****
 28 31 0 0 0
SMALL
GASTEIGER

@<TRIPOS>ATOM
      1 C          64.7576   91.5880   12.8339 C.ar    1  UNL1       -0.0208
      2 C          63.7994   90.6931   12.1053 C.ar    1  UNL1       -0.0042
      3 C          63.5248   89.3112   12.6199 C.ar    1  UNL1        0.0012
      4 C          64.2085   88.8242   13.8630 C.ar    1  UNL1        0.0193
      5 C          65.1668   89.7191   14.5916 C.ar    1  UNL1        0.0012
      6 C          65.4413   91.1010   14.0770 C.ar    1  UNL1       -0.0042
      7 C          63.9339   87.4421   14.3776 C.ar    1  UNL1        0.1015
      8 C          63.7872   87.2060   15.8515 C.ar    1  UNL1        0.0258
      9 C          63.5127   85.8240   16.3661 C.ar    1  UNL1        0.0641
     10 C          63.3848   84.6781   15.4066 C.ar    1  UNL1        0.2805
     11 O          63.1102   83.2962   15.9210 O.2     1  UNL1       -0.2652
     12 N          63.5315   84.9143   13.9325 N.ar    1  UNL1       -0.1945
     13 N          63.8060   86.2963   13.4180 N.ar    1  UNL1       -0.1626
     14 C          63.4036   83.7685   12.9730 C.ar    1  UNL1        0.0861
     15 C          62.4476   82.6497   13.2640 C.ar    1  UNL1        0.0216
     16 C          62.3197   81.5038   12.3044 C.ar    1  UNL1        0.0312
     17 C          63.1478   81.4768   11.0540 C.ar    1  UNL1        0.1402
     18 F          63.0199   80.3309   10.0944 F       1  UNL1       -0.2042
     19 C          64.1037   82.5955   10.7630 C.ar    1  UNL1        0.0312
     20 C          64.2316   83.7413   11.7226 C.ar    1  UNL1        0.0216
     21 C          65.0322   92.9701   12.3194 C.3     1  UNL1        0.0437
     22 C          66.4452   93.4589   12.2000 C.3     1  UNL1        0.0768
     23 C          68.0860   92.0382    9.7631 C.3     1  UNL1        0.0173
     24 C          67.6576   93.4746    9.8177 C.3     1  UNL1        0.0576
     25 C          67.9081   94.5102    8.7619 C.3     1  UNL1        0.0174
     26 C          67.3087   95.8033    9.2295 C.3     1  UNL1        0.0187
     27 C          66.6878   95.5669   10.5743 C.3     1  UNL1        0.0721
     28 N          66.9034   94.1277   10.9378 N.3     1  UNL1       -0.2737
@<TRIPOS>BOND
     1    24    23    1
     2    24    25    1
     3    25    26    1
     4    26    27    1
     5    27    28    1
     6    28    22    1
     7    22    21    1
     8    21     1    1
     9     1     2   ar
    10     2     3   ar
    11     3     4   ar
    12     4     7    1
    13     7     8   ar
    14     8     9   ar
    15     9    10   ar
    16    10    11    2
    17    10    12   ar
    18    12    14    1
    19    14    15   ar
    20    15    16   ar
    21    16    17   ar
    22    17    18    1
    23    17    19   ar
    24    19    20   ar
    25    12    13   ar
    26     4     5   ar
    27     5     6   ar
    28    28    24    1
    29     6     1   ar
    30    13     7   ar
    31    20    14   ar
@<TRIPOS>MOLECULE
*****
 28 31 0 0 0
SMALL
GASTEIGER

@<TRIPOS>ATOM
      1 C          65.5957   92.3443   12.8215 C.ar    1  UNL1       -0.0208
      2 C          64.3966   91.5947   12.3213 C.ar    1  UNL1       -0.0042
      3 C          63.8540   90.4378   13.1068 C.ar    1  UNL1        0.0012
      4 C          64.5105   90.0305   14.3925 C.ar    1  UNL1        0.0193
      5 C          65.7095   90.7800   14.8928 C.ar    1  UNL1        0.0012
      6 C          66.2522   91.9369   14.1073 C.ar    1  UNL1       -0.0042
      7 C          63.9678   88.8735   15.1781 C.ar    1  UNL1        0.1015
      8 C          63.4076   89.0964   16.5516 C.ar    1  UNL1        0.0258
      9 C          62.8649   87.9394   17.3371 C.ar    1  UNL1        0.0641
     10 C          62.8824   86.5596   16.7490 C.ar    1  UNL1        0.2805
     11 O          62.3397   85.4026   17.5345 O.2     1  UNL1       -0.2652
     12 N          63.4426   86.3367   15.3755 N.ar    1  UNL1       -0.1945
     13 N          63.9853   87.4937   14.5900 N.ar    1  UNL1       -0.1626
     14 C          63.4601   84.9569   14.7875 C.ar    1  UNL1        0.0861
     15 C          64.5970   84.5316   13.9060 C.ar    1  UNL1        0.0216
     16 C          64.6145   83.1518   13.3180 C.ar    1  UNL1        0.0312
     17 C          63.4951   82.1973   13.6114 C.ar    1  UNL1        0.1402
     18 F          63.5127   80.8174   13.0234 F       1  UNL1       -0.2042
     19 C          62.3584   82.6225   14.4928 C.ar    1  UNL1        0.0312
     20 C          62.3409   84.0024   15.0808 C.ar    1  UNL1        0.0216
     21 C          66.1384   93.5012   12.0360 C.3     1  UNL1        0.0437
     22 C          65.4714   93.9197   10.7593 C.3     1  UNL1        0.0768
     23 C          68.1063   93.2447    8.9563 C.3     1  UNL1        0.0173
     24 C          67.3775   94.5551    8.9962 C.3     1  UNL1        0.0576
     25 C          67.7318   95.7852    8.2145 C.3     1  UNL1        0.0174
     26 C          66.7396   96.8558    8.5601 C.3     1  UNL1        0.0187
     27 C          65.7720   96.2873    9.5555 C.3     1  UNL1        0.0721
     28 N          66.1664   94.8653    9.8250 N.3     1  UNL1       -0.2737
@<TRIPOS>BOND
     1    24    23    1
     2    24    25    1
     3    25    26    1
     4    26    27    1
     5    27    28    1
     6    28    22    1
     7    22    21    1
     8    21     1    1
     9     1     2   ar
    10     2     3   ar
    11     3     4   ar
    12     4     7    1
    13     7     8   ar
    14     8     9   ar
    15     9    10   ar
    16    10    11    2
    17    10    12   ar
    18    12    14    1
    19    14    15   ar
    20    15    16   ar
    21    16    17   ar
    22    17    18    1
    23    17    19   ar
    24    19    20   ar
    25    12    13   ar
    26     4     5   ar
    27     5     6   ar
    28    28    24    1
    29     6     1   ar
    30    13     7   ar
    31    20    14   ar
@<TRIPOS>MOLECULE
*****
 28 31 0 0 0
SMALL
GASTEIGER

@<TRIPOS>ATOM
      1 C          63.8044   82.8670   14.4812 C.ar    1  UNL1       -0.0208
      2 C          64.8821   83.7797   13.9757 C.ar    1  UNL1       -0.0042
      3 C          64.8463   85.2410   14.3124 C.ar    1  UNL1        0.0012
      4 C          63.7328   85.7895   15.1546 C.ar    1  UNL1        0.0193
      5 C          62.6551   84.8768   15.6601 C.ar    1  UNL1        0.0012
      6 C          62.6909   83.4156   15.3234 C.ar    1  UNL1       -0.0042
      7 C          63.6970   87.2509   15.4912 C.ar    1  UNL1        0.1015
      8 C          63.0711   87.7097   16.7748 C.ar    1  UNL1        0.0258
      9 C          63.0353   89.1710   17.1115 C.ar    1  UNL1        0.0641
     10 C          63.6255   90.1735   16.1646 C.ar    1  UNL1        0.2805
     11 O          63.5898   91.6347   16.5012 O.2     1  UNL1       -0.2652
     12 N          64.2515   89.7146   14.8809 N.ar    1  UNL1       -0.1945
     13 N          64.2872   88.2533   14.5443 N.ar    1  UNL1       -0.1626
     14 C          64.8417   90.7171   13.9340 C.ar    1  UNL1        0.0861
     15 C          66.1477   91.3789   14.2605 C.ar    1  UNL1        0.0216
     16 C          66.7379   92.3814   13.3136 C.ar    1  UNL1        0.0312
     17 C          66.0221   92.7220   12.0400 C.ar    1  UNL1        0.1402
     18 F          66.6123   93.7244   11.0931 F       1  UNL1       -0.2042
     19 C          64.7163   92.0602   11.7135 C.ar    1  UNL1        0.0312
     20 C          64.1261   91.0577   12.6605 C.ar    1  UNL1        0.0216
     21 C          63.8402   81.4057   14.1445 C.3     1  UNL1        0.0437
     22 C          62.6550   80.7569   13.4930 C.3     1  UNL1        0.0768
     23 C          63.4218   82.4936   10.8386 C.3     1  UNL1        0.0173
     24 C          63.1174   81.0252   10.8739 C.3     1  UNL1        0.0576
     25 C          63.1119   80.0974    9.6953 C.3     1  UNL1        0.0174
     26 C          62.7561   78.7256   10.1870 C.3     1  UNL1        0.0187
     27 C          62.5416   78.8057   11.6695 C.3     1  UNL1        0.0721
     28 N          62.7649   80.2270   12.0939 N.3     1  UNL1       -0.2737
@<TRIPOS>BOND
     1    24    23    1
     2    24    25    1
     3    25    26    1
     4    26    27    1
     5    27    28    1
     6    28    22    1
     7    22    21    1
     8    21     1    1
     9     1     2   ar
    10     2     3   ar
    11     3     4   ar
    12     4     7    1
    13     7     8   ar
    14     8     9   ar
    15     9    10   ar
    16    10    11    2
    17    10    12   ar
    18    12    14    1
    19    14    15   ar
    20    15    16   ar
    21    16    17   ar
    22    17    18    1
    23    17    19   ar
    24    19    20   ar
    25    12    13   ar
    26     4     5   ar
    27     5     6   ar
    28    28    24    1
    29     6     1   ar
    30    13     7   ar
    31    20    14   ar
@<TRIPOS>MOLECULE
*****
 28 31 0 0 0
SMALL
GASTEIGER

@<TRIPOS>ATOM
      1 C          62.4192   87.2040   11.9330 C.ar    1  UNL1       -0.0208
      2 C          63.2754   87.2191   13.1645 C.ar    1  UNL1       -0.0042
      3 C          64.0421   88.4555   13.5298 C.ar    1  UNL1        0.0012
      4 C          63.9525   89.6768   12.6637 C.ar    1  UNL1        0.0193
      5 C          63.0963   89.6618   11.4322 C.ar    1  UNL1        0.0012
      6 C          62.3296   88.4254   11.0669 C.ar    1  UNL1       -0.0042
      7 C          64.7192   90.9133   13.0290 C.ar    1  UNL1        0.1015
      8 C          65.0250   91.2085   14.4675 C.ar    1  UNL1        0.0258
      9 C          65.7917   92.4450   14.8329 C.ar    1  UNL1        0.0641
     10 C          66.2525   93.3862   13.7597 C.ar    1  UNL1        0.2805
     11 O          67.0192   94.6226   14.1250 O.2     1  UNL1       -0.2652
     12 N          65.9467   93.0909   12.3211 N.ar    1  UNL1       -0.1945
     13 N          65.1800   91.8545   11.9558 N.ar    1  UNL1       -0.1626
     14 C          66.4075   94.0322   11.2480 C.ar    1  UNL1        0.0861
     15 C          67.1962   93.5125   10.0826 C.ar    1  UNL1        0.0216
     16 C          67.6570   94.4537    9.0094 C.ar    1  UNL1        0.0312
     17 C          67.3292   95.9146    9.1016 C.ar    1  UNL1        0.1402
     18 F          67.7901   96.8558    8.0284 F       1  UNL1       -0.2042
     19 C          66.5406   96.4342   10.2669 C.ar    1  UNL1        0.0312
     20 C          66.0798   95.4930   11.3401 C.ar    1  UNL1        0.0216
     21 C          61.6525   85.9676   11.5677 C.3     1  UNL1        0.0437
     22 C          62.3844   84.7313   11.1365 C.3     1  UNL1        0.0768
     23 C          63.5268   81.7461   10.4788 C.3     1  UNL1        0.0173
     24 C          63.2721   82.3114   11.8446 C.3     1  UNL1        0.0576
     25 C          63.4978   81.6039   13.1478 C.3     1  UNL1        0.0174
     26 C          63.1121   82.5388   14.2557 C.3     1  UNL1        0.0187
     27 C          62.6481   83.8242   13.6370 C.3     1  UNL1        0.0721
     28 N          62.7470   83.6835   12.1469 N.3     1  UNL1       -0.2737
@<TRIPOS>BOND
     1    24    23    1
     2    24    25    1
     3    25    26    1
     4    26    27    1
     5    27    28    1
     6    28    22    1
     7    22    21    1
     8    21     1    1
     9     1     2   ar
    10     2     3   ar
    11     3     4   ar
    12     4     7    1
    13     7     8   ar
    14     8     9   ar
    15     9    10   ar
    16    10    11    2
    17    10    12   ar
    18    12    14    1
    19    14    15   ar
    20    15    16   ar
    21    16    17   ar
    22    17    18    1
    23    17    19   ar
    24    19    20   ar
    25    12    13   ar
    26     4     5   ar
    27     5     6   ar
    28    28    24    1
    29     6     1   ar
    30    13     7   ar
    31    20    14   ar
@<TRIPOS>MOLECULE
*****
 28 31 0 0 0
SMALL
GASTEIGER

@<TRIPOS>ATOM
      1 C          65.1579   91.7095   14.2527 C.ar    1  UNL1       -0.0208
      2 C          64.5397   92.0153   12.9208 C.ar    1  UNL1       -0.0042
      3 C          63.8280   90.9369   12.1589 C.ar    1  UNL1        0.0012
      4 C          63.7346   89.5526   12.7290 C.ar    1  UNL1        0.0193
      5 C          64.3528   89.2468   14.0610 C.ar    1  UNL1        0.0012
      6 C          65.0645   90.3252   14.8229 C.ar    1  UNL1       -0.0042
      7 C          63.0229   88.4741   11.9671 C.ar    1  UNL1        0.1015
      8 C          62.1480   88.8313   10.8022 C.ar    1  UNL1        0.0258
      9 C          61.4363   87.7528   10.0403 C.ar    1  UNL1        0.0641
     10 C          61.5995   86.3173   10.4433 C.ar    1  UNL1        0.2805
     11 O          60.8878   85.2388    9.6815 O.2     1  UNL1       -0.2652
     12 N          62.4744   85.9601   11.6083 N.ar    1  UNL1       -0.1945
     13 N          63.1861   87.0386   12.3701 N.ar    1  UNL1       -0.1626
     14 C          62.6376   84.5245   12.0113 C.ar    1  UNL1        0.0861
     15 C          62.3260   84.0998   13.4158 C.ar    1  UNL1        0.0216
     16 C          62.4892   82.6642   13.8189 C.ar    1  UNL1        0.0312
     17 C          62.9640   81.6533   12.8174 C.ar    1  UNL1        0.1402
     18 F          63.1272   80.2177   13.2204 F       1  UNL1       -0.2042
     19 C          63.2756   82.0781   11.4130 C.ar    1  UNL1        0.0312
     20 C          63.1124   83.5137   11.0099 C.ar    1  UNL1        0.0216
     21 C          65.8696   92.7879   15.0147 C.3     1  UNL1        0.0437
     22 C          66.8364   93.6918   14.3088 C.3     1  UNL1        0.0768
     23 C          68.3687   91.5290   12.4052 C.3     1  UNL1        0.0173
     24 C          67.5885   92.7206   11.9347 C.3     1  UNL1        0.0576
     25 C          67.3756   93.1272   10.5067 C.3     1  UNL1        0.0174
     26 C          66.5396   94.3727   10.4990 C.3     1  UNL1        0.0187
     27 C          66.2359   94.7358   11.9225 C.3     1  UNL1        0.0721
     28 N          66.8841   93.7147   12.8097 N.3     1  UNL1       -0.2737
@<TRIPOS>BOND
     1    24    23    1
     2    24    25    1
     3    25    26    1
     4    26    27    1
     5    27    28    1
     6    28    22    1
     7    22    21    1
     8    21     1    1
     9     1     2   ar
    10     2     3   ar
    11     3     4   ar
    12     4     7    1
    13     7     8   ar
    14     8     9   ar
    15     9    10   ar
    16    10    11    2
    17    10    12   ar
    18    12    14    1
    19    14    15   ar
    20    15    16   ar
    21    16    17   ar
    22    17    18    1
    23    17    19   ar
    24    19    20   ar
    25    12    13   ar
    26     4     5   ar
    27     5     6   ar
    28    28    24    1
    29     6     1   ar
    30    13     7   ar
    31    20    14   ar
@<TRIPOS>MOLECULE
*****
 28 31 0 0 0
SMALL
GASTEIGER

@<TRIPOS>ATOM
      1 C          64.4377   83.9130   13.0911 C.ar    1  UNL1       -0.0208
      2 C          63.4851   84.8941   12.4747 C.ar    1  UNL1       -0.0042
      3 C          63.3645   86.2784   13.0395 C.ar    1  UNL1        0.0012
      4 C          64.1966   86.6816   14.2207 C.ar    1  UNL1        0.0193
      5 C          65.1492   85.7005   14.8370 C.ar    1  UNL1        0.0012
      6 C          65.2697   84.3162   14.2722 C.ar    1  UNL1       -0.0042
      7 C          64.0759   88.0660   14.7855 C.ar    1  UNL1        0.1015
      8 C          63.3716   88.2844   16.0917 C.ar    1  UNL1        0.0258
      9 C          63.2510   89.6688   16.6565 C.ar    1  UNL1        0.0641
     10 C          63.8348   90.8348   15.9151 C.ar    1  UNL1        0.2805
     11 O          63.7142   92.2192   16.4798 O.2     1  UNL1       -0.2652
     12 N          64.5391   90.6164   14.6088 N.ar    1  UNL1       -0.1945
     13 N          64.6597   89.2320   14.0441 N.ar    1  UNL1       -0.1626
     14 C          65.1229   91.7823   13.8674 C.ar    1  UNL1        0.0861
     15 C          66.0252   92.7473   14.5779 C.ar    1  UNL1        0.0216
     16 C          66.6090   93.9133   13.8365 C.ar    1  UNL1        0.0312
     17 C          66.2905   94.1143   12.3845 C.ar    1  UNL1        0.1402
     18 F          66.8742   95.2802   11.6431 F       1  UNL1       -0.2042
     19 C          65.3882   93.1493   11.6740 C.ar    1  UNL1        0.0312
     20 C          64.8045   91.9834   12.4154 C.ar    1  UNL1        0.0216
     21 C          64.5583   82.5286   12.5262 C.3     1  UNL1        0.0437
     22 C          64.2742   81.3376   13.3928 C.3     1  UNL1        0.0768
     23 C          61.9691   82.9936   15.0033 C.3     1  UNL1        0.0173
     24 C          61.7998   81.6522   14.3538 C.3     1  UNL1        0.0576
     25 C          60.5412   80.8365   14.3304 C.3     1  UNL1        0.0174
     26 C          60.8229   79.5711   13.5757 C.3     1  UNL1        0.0187
     27 C          62.2557   79.6048   13.1326 C.3     1  UNL1        0.0721
     28 N          62.8593   80.8910   13.6135 N.3     1  UNL1       -0.2737
@<TRIPOS>BOND
     1    24    23    1
     2    24    25    1
     3    25    26    1
     4    26    27    1
     5    27    28    1
     6    28    22    1
     7    22    21    1
     8    21     1    1
     9     1     2   ar
    10     2     3   ar
    11     3     4   ar
    12     4     7    1
    13     7     8   ar
    14     8     9   ar
    15     9    10   ar
    16    10    11    2
    17    10    12   ar
    18    12    14    1
    19    14    15   ar
    20    15    16   ar
    21    16    17   ar
    22    17    18    1
    23    17    19   ar
    24    19    20   ar
    25    12    13   ar
    26     4     5   ar
    27     5     6   ar
    28    28    24    1
    29     6     1   ar
    30    13     7   ar
    31    20    14   ar
@<TRIPOS>MOLECULE
*****
 28 31 0 0 0
SMALL
GASTEIGER

@<TRIPOS>ATOM
      1 C          63.2672   84.5740   14.6139 C.ar    1  UNL1       -0.0208
      2 C          63.9496   85.5026   15.5742 C.ar    1  UNL1       -0.0042
      3 C          64.2189   86.9243   15.1793 C.ar    1  UNL1        0.0012
      4 C          63.8059   87.4175   13.8243 C.ar    1  UNL1        0.0193
      5 C          63.1235   86.4890   12.8641 C.ar    1  UNL1        0.0012
      6 C          62.8542   85.0672   13.2589 C.ar    1  UNL1       -0.0042
      7 C          64.0752   88.8394   13.4295 C.ar    1  UNL1        0.1015
      8 C          63.2465   89.4915   12.3628 C.ar    1  UNL1        0.0258
      9 C          63.5158   90.9134   11.9680 C.ar    1  UNL1        0.0641
     10 C          64.6140   91.6831   12.6399 C.ar    1  UNL1        0.2805
     11 O          64.8834   93.1049   12.2452 O.2     1  UNL1       -0.2652
     12 N          65.4428   91.0310   13.7067 N.ar    1  UNL1       -0.1945
     13 N          65.1734   89.6092   14.1014 N.ar    1  UNL1       -0.1626
     14 C          66.5410   91.8007   14.3786 C.ar    1  UNL1        0.0861
     15 C          67.9047   91.8597   13.7565 C.ar    1  UNL1        0.0216
     16 C          69.0029   92.6295   14.4285 C.ar    1  UNL1        0.0312
     17 C          68.7373   93.3402   15.7225 C.ar    1  UNL1        0.1402
     18 F          69.8355   94.1099   16.3945 F       1  UNL1       -0.2042
     19 C          67.3737   93.2811   16.3445 C.ar    1  UNL1        0.0312
     20 C          66.2755   92.5114   15.6726 C.ar    1  UNL1        0.0216
     21 C          62.9978   83.1521   15.0088 C.3     1  UNL1        0.0437
     22 C          63.7907   82.0390   14.3905 C.3     1  UNL1        0.0768
     23 C          62.0117   79.6326   13.0892 C.3     1  UNL1        0.0173
     24 C          62.8308   80.6334   12.3294 C.3     1  UNL1        0.0576
     25 C          62.9760   80.7039   10.8381 C.3     1  UNL1        0.0174
     26 C          63.8835   81.8536   10.5146 C.3     1  UNL1        0.0187
     27 C          64.2992   82.4937   11.8060 C.3     1  UNL1        0.0721
     28 N          63.6485   81.7395   12.9276 N.3     1  UNL1       -0.2737
@<TRIPOS>BOND
     1    24    23    1
     2    24    25    1
     3    25    26    1
     4    26    27    1
     5    27    28    1
     6    28    22    1
     7    22    21    1
     8    21     1    1
     9     1     2   ar
    10     2     3   ar
    11     3     4   ar
    12     4     7    1
    13     7     8   ar
    14     8     9   ar
    15     9    10   ar
    16    10    11    2
    17    10    12   ar
    18    12    14    1
    19    14    15   ar
    20    15    16   ar
    21    16    17   ar
    22    17    18    1
    23    17    19   ar
    24    19    20   ar
    25    12    13   ar
    26     4     5   ar
    27     5     6   ar
    28    28    24    1
    29     6     1   ar
    30    13     7   ar
    31    20    14   ar
@<TRIPOS>MOLECULE
*****
 28 31 0 0 0
SMALL
GASTEIGER

@<TRIPOS>ATOM
      1 C          61.3306   88.0213   11.0844 C.ar    1  UNL1       -0.0208
      2 C          62.4104   87.7056   12.0765 C.ar    1  UNL1       -0.0042
      3 C          63.3847   88.7691   12.4883 C.ar    1  UNL1        0.0012
      4 C          63.2793   90.1483   11.9080 C.ar    1  UNL1        0.0193
      5 C          62.1994   90.4640   10.9160 C.ar    1  UNL1        0.0012
      6 C          61.2251   89.4005   10.5042 C.ar    1  UNL1       -0.0042
      7 C          64.2537   91.2117   12.3199 C.ar    1  UNL1        0.1015
      8 C          64.6376   91.3593   13.7624 C.ar    1  UNL1        0.0258
      9 C          65.6120   92.4227   14.1742 C.ar    1  UNL1        0.0641
     10 C          66.2025   93.3387   13.1435 C.ar    1  UNL1        0.2805
     11 O          67.1769   94.4021   13.5553 O.2     1  UNL1       -0.2652
     12 N          65.8186   93.1911   11.7009 N.ar    1  UNL1       -0.1945
     13 N          64.8442   92.1277   11.2892 N.ar    1  UNL1       -0.1626
     14 C          66.4091   94.1071   10.6702 C.ar    1  UNL1        0.0861
     15 C          65.8710   95.4977   10.5062 C.ar    1  UNL1        0.0216
     16 C          66.4615   96.4136    9.4755 C.ar    1  UNL1        0.0312
     17 C          67.5901   95.9390    8.6088 C.ar    1  UNL1        0.1402
     18 F          68.1806   96.8549    7.5781 F       1  UNL1       -0.2042
     19 C          68.1281   94.5485    8.7729 C.ar    1  UNL1        0.0312
     20 C          67.5376   93.6325    9.8036 C.ar    1  UNL1        0.0216
     21 C          60.3561   86.9578   10.6726 C.3     1  UNL1        0.0437
     22 C          60.7591   85.9201    9.6673 C.3     1  UNL1        0.0768
     23 C          62.9913   84.9852    7.4781 C.3     1  UNL1        0.0173
     24 C          62.9663   84.6054    8.9290 C.3     1  UNL1        0.0576
     25 C          63.9629   83.7292    9.6283 C.3     1  UNL1        0.0174
     26 C          63.5528   83.6174   11.0669 C.3     1  UNL1        0.0187
     27 C          62.3026   84.4245   11.2566 C.3     1  UNL1        0.0721
     28 N          61.9403   85.0351    9.9352 N.3     1  UNL1       -0.2737
@<TRIPOS>BOND
     1    24    23    1
     2    24    25    1
     3    25    26    1
     4    26    27    1
     5    27    28    1
     6    28    22    1
     7    22    21    1
     8    21     1    1
     9     1     2   ar
    10     2     3   ar
    11     3     4   ar
    12     4     7    1
    13     7     8   ar
    14     8     9   ar
    15     9    10   ar
    16    10    11    2
    17    10    12   ar
    18    12    14    1
    19    14    15   ar
    20    15    16   ar
    21    16    17   ar
    22    17    18    1
    23    17    19   ar
    24    19    20   ar
    25    12    13   ar
    26     4     5   ar
    27     5     6   ar
    28    28    24    1
    29     6     1   ar
    30    13     7   ar
    31    20    14   ar
@<TRIPOS>MOLECULE
*****
 28 31 0 0 0
SMALL
GASTEIGER

@<TRIPOS>ATOM
      1 C          64.7312   91.5104   14.4427 C.ar    1  UNL1       -0.0208
      2 C          64.6481   90.0966   14.9369 C.ar    1  UNL1       -0.0042
      3 C          64.0576   89.0302   14.0629 C.ar    1  UNL1        0.0012
      4 C          63.5503   89.3774   12.6947 C.ar    1  UNL1        0.0193
      5 C          63.6335   90.7912   12.2005 C.ar    1  UNL1        0.0012
      6 C          64.2240   91.8577   13.0745 C.ar    1  UNL1       -0.0042
      7 C          62.9599   88.3109   11.8207 C.ar    1  UNL1        0.1015
      8 C          62.2277   88.6886   10.5672 C.ar    1  UNL1        0.0258
      9 C          61.6372   87.6220    9.6932 C.ar    1  UNL1        0.0641
     10 C          61.7789   86.1778   10.0727 C.ar    1  UNL1        0.2805
     11 O          61.1885   85.1112    9.1988 O.2     1  UNL1       -0.2652
     12 N          62.5112   85.8001   11.3262 N.ar    1  UNL1       -0.1945
     13 N          63.1016   86.8666   12.2002 N.ar    1  UNL1       -0.1626
     14 C          62.6530   84.3558   11.7057 C.ar    1  UNL1        0.0861
     15 C          62.3233   83.9108   13.0998 C.ar    1  UNL1        0.0216
     16 C          62.4651   82.4666   13.4793 C.ar    1  UNL1        0.0312
     17 C          62.9365   81.4673   12.4647 C.ar    1  UNL1        0.1402
     18 F          63.0783   80.0230   12.8442 F       1  UNL1       -0.2042
     19 C          63.2661   81.9123   11.0707 C.ar    1  UNL1        0.0312
     20 C          63.1243   83.3566   10.6912 C.ar    1  UNL1        0.0216
     21 C          65.3217   92.5770   15.3167 C.3     1  UNL1        0.0437
     22 C          66.4476   93.4266   14.8064 C.3     1  UNL1        0.0768
     23 C          69.3410   92.6917   16.1245 C.3     1  UNL1        0.0173
     24 C          68.9346   92.4524   14.7006 C.3     1  UNL1        0.0576
     25 C          69.7866   91.8333   13.6326 C.3     1  UNL1        0.0174
     26 C          68.9833   91.7884   12.3666 C.3     1  UNL1        0.0187
     27 C          67.6346   92.3799   12.6523 C.3     1  UNL1        0.0721
     28 N          67.6046   92.7902   14.0948 N.3     1  UNL1       -0.2737
@<TRIPOS>BOND
     1    24    23    1
     2    24    25    1
     3    25    26    1
     4    26    27    1
     5    27    28    1
     6    28    22    1
     7    22    21    1
     8    21     1    1
     9     1     2   ar
    10     2     3   ar
    11     3     4   ar
    12     4     7    1
    13     7     8   ar
    14     8     9   ar
    15     9    10   ar
    16    10    11    2
    17    10    12   ar
    18    12    14    1
    19    14    15   ar
    20    15    16   ar
    21    16    17   ar
    22    17    18    1
    23    17    19   ar
    24    19    20   ar
    25    12    13   ar
    26     4     5   ar
    27     5     6   ar
    28    28    24    1
    29     6     1   ar
    30    13     7   ar
    31    20    14   ar
