@<TRIPOS>MOLECULE
*****
 31 35 0 0 0
SMALL
GASTEIGER

@<TRIPOS>ATOM
      1 C          64.2471   88.3673   13.5163 C.3     1  UNL1        0.0892
      2 C          63.2910   87.9077   12.4559 C.3     1  UNL1        0.1584
      3 O          62.8097   86.4871   12.4446 O.3     1  UNL1       -0.3490
      4 C          63.2845   85.5261   13.4939 C.3     1  UNL1        0.1538
      5 C          64.2406   85.9857   14.5544 C.3     1  UNL1        0.0841
      6 N          64.7154   85.0246   15.6037 N.3     1  UNL1       -0.3199
      7 C          64.7219   87.4063   14.5656 C.3     1  UNL1        0.0368
      8 H          64.2909   84.1109   15.4449 H       1  UNL1        0.1189
      9 H          64.4473   85.3684   16.5259 H       1  UNL1        0.1189
     10 C          65.7524   95.9796    9.2688 C.3     1  UNL1        0.0540
     11 C          65.7916   95.1646   10.5274 C.ar    1  UNL1        0.0824
     12 C          66.2826   95.6319   11.8655 C.ar    1  UNL1        0.0552
     13 C          66.1412   94.4952   12.8340 C.ar    1  UNL1        0.1646
     14 N          66.4643   94.3743   14.2938 N.ar    1  UNL1       -0.2252
     15 C          66.2091   93.0835   15.0141 C.ar    1  UNL1        0.0988
     16 C          65.6307   91.9137   14.2745 C.ar    1  UNL1        0.0281
     17 C          65.3075   92.0346   12.8147 C.ar    1  UNL1        0.0771
     18 N          65.5627   93.3254   12.0945 N.ar    1  UNL1       -0.2154
     19 N          65.3467   93.7391   10.6690 N.ar    1  UNL1       -0.1683
     20 C          64.7499   90.7209   12.3531 C.3     1  UNL1        0.1188
     21 N          64.7285   89.7880   13.5275 N.3     1  UNL1       -0.2627
     22 C          65.2728   90.5252   14.7150 C.3     1  UNL1        0.1022
     23 C          62.8031   84.1054   13.4828 C.ar    1  UNL1        0.0357
     24 C          63.0743   83.2310   12.2945 C.ar    1  UNL1        0.0323
     25 C          62.5930   81.8104   12.2833 C.ar    1  UNL1        0.1673
     26 F          62.8642   80.9360   11.0951 F       1  UNL1       -0.2018
     27 C          61.8406   81.2642   13.4603 C.ar    1  UNL1        0.1696
     28 F          61.3593   79.8435   13.4491 F       1  UNL1       -0.2017
     29 C          61.5694   82.1386   14.6486 C.ar    1  UNL1        0.0613
     30 C          62.0507   83.5592   14.6598 C.ar    1  UNL1        0.1408
     31 F          61.7795   84.4336   15.8480 F       1  UNL1       -0.2043
@<TRIPOS>BOND
     1    10    11    1
     2    11    12   ar
     3    12    13   ar
     4    13    14   ar
     5    14    15   ar
     6    15    16   ar
     7    16    17   ar
     8    17    18   ar
     9    18    19   ar
    10    17    20    1
    11    20    21    1
    12     1    21    1
    13     1     2    1
    14     2     3    1
    15     3     4    1
    16     4    23    1
    17    23    24   ar
    18    24    25   ar
    19    25    26    1
    20    25    27   ar
    21    27    28    1
    22    27    29   ar
    23    29    30   ar
    24    30    31    1
    25     4     5    1
    26     5     6    1
    27     5     7    1
    28    21    22    1
    29    19    11   ar
    30     7     1    1
    31    18    13   ar
    32    30    23   ar
    33    22    16    1
    34     6     8    1
    35     6     9    1
@<TRIPOS>MOLECULE
*****
 31 35 0 0 0
SMALL
GASTEIGER

@<TRIPOS>ATOM
      1 C          64.1885   87.7063   13.6475 C.3     1  UNL1        0.0892
      2 C          63.2980   87.2734   12.5207 C.3     1  UNL1        0.1584
      3 O          62.8719   85.8395   12.4098 O.3     1  UNL1       -0.3490
      4 C          63.3364   84.8385   13.4257 C.3     1  UNL1        0.1538
      5 C          64.2269   85.2713   14.5525 C.3     1  UNL1        0.0841
      6 N          64.6913   84.2702   15.5685 N.3     1  UNL1       -0.3199
      7 C          64.6529   86.7052   14.6634 C.3     1  UNL1        0.0368
      8 H          64.3093   83.3523   15.3406 H       1  UNL1        0.1189
      9 H          64.3702   84.5517   16.4947 H       1  UNL1        0.1189
     10 C          66.0601   95.4597    9.8218 C.3     1  UNL1        0.0540
     11 C          65.9365   94.6165   11.0562 C.ar    1  UNL1        0.0824
     12 C          66.2040   95.0666   12.4619 C.ar    1  UNL1        0.0552
     13 C          65.9564   93.9034   13.3761 C.ar    1  UNL1        0.1646
     14 N          66.0596   93.7577   14.8654 N.ar    1  UNL1       -0.2252
     15 C          65.7422   92.4430   15.5142 C.ar    1  UNL1        0.0988
     16 C          65.3217   91.2740   14.6735 C.ar    1  UNL1        0.0281
     17 C          65.2185   91.4198   13.1841 C.ar    1  UNL1        0.0771
     18 N          65.5359   92.7345   12.5355 N.ar    1  UNL1       -0.2154
     19 N          65.5236   93.1752   11.1017 N.ar    1  UNL1       -0.1683
     20 C          64.7815   90.1010   12.6186 C.3     1  UNL1        0.1188
     21 N          64.6145   89.1403   13.7583 N.3     1  UNL1       -0.2627
     22 C          64.9484   89.8652   15.0283 C.3     1  UNL1        0.1022
     23 C          62.9103   83.4044   13.3149 C.ar    1  UNL1        0.0357
     24 C          61.7790   82.8911   14.1554 C.ar    1  UNL1        0.0323
     25 C          61.3530   81.4572   14.0446 C.ar    1  UNL1        0.1673
     26 F          60.2216   80.9438   14.8852 F       1  UNL1       -0.2018
     27 C          62.0582   80.5366   13.0933 C.ar    1  UNL1        0.1696
     28 F          61.6322   79.1026   12.9824 F       1  UNL1       -0.2017
     29 C          63.1896   81.0500   12.2527 C.ar    1  UNL1        0.0613
     30 C          63.6156   82.4839   12.3635 C.ar    1  UNL1        0.1408
     31 F          64.7470   82.9973   11.5230 F       1  UNL1       -0.2043
@<TRIPOS>BOND
     1    10    11    1
     2    11    12   ar
     3    12    13   ar
     4    13    14   ar
     5    14    15   ar
     6    15    16   ar
     7    16    17   ar
     8    17    18   ar
     9    18    19   ar
    10    17    20    1
    11    20    21    1
    12     1    21    1
    13     1     2    1
    14     2     3    1
    15     3     4    1
    16     4    23    1
    17    23    24   ar
    18    24    25   ar
    19    25    26    1
    20    25    27   ar
    21    27    28    1
    22    27    29   ar
    23    29    30   ar
    24    30    31    1
    25     4     5    1
    26     5     6    1
    27     5     7    1
    28    21    22    1
    29    19    11   ar
    30     7     1    1
    31    18    13   ar
    32    30    23   ar
    33    22    16    1
    34     6     8    1
    35     6     9    1
@<TRIPOS>MOLECULE
*****
 31 35 0 0 0
SMALL
GASTEIGER

@<TRIPOS>ATOM
      1 C          63.4255   89.7430   11.8026 C.3     1  UNL1        0.0892
      2 C          63.8865   89.1240   13.0887 C.3     1  UNL1        0.1584
      3 O          64.8955   89.8328   13.9429 O.3     1  UNL1       -0.3490
      4 C          65.4433   91.1606   13.5109 C.3     1  UNL1        0.1538
      5 C          64.9823   91.7796   12.2247 C.3     1  UNL1        0.0841
      6 N          65.5302   93.1075   11.7927 N.3     1  UNL1       -0.3199
      7 C          63.9733   91.0708   11.3706 C.3     1  UNL1        0.0368
      8 H          66.1985   93.4417   12.4870 H       1  UNL1        0.1189
      9 H          64.7667   93.7782   11.7053 H       1  UNL1        0.1189
     10 C          61.5146   83.7745    5.5592 C.3     1  UNL1        0.0540
     11 C          61.0668   84.8186    6.5387 C.ar    1  UNL1        0.0824
     12 C          59.6520   85.2578    6.7741 C.ar    1  UNL1        0.0552
     13 C          59.6661   86.3174    7.8357 C.ar    1  UNL1        0.1646
     14 N          58.5666   87.1137    8.4735 N.ar    1  UNL1       -0.2252
     15 C          58.8906   88.1258    9.5322 C.ar    1  UNL1        0.0988
     16 C          60.3141   88.3415    9.9530 C.ar    1  UNL1        0.0281
     17 C          61.4136   87.5451    9.3151 C.ar    1  UNL1        0.0771
     18 N          61.0896   86.5331    8.2564 N.ar    1  UNL1       -0.2154
     19 N          61.9553   85.6068    7.4549 N.ar    1  UNL1       -0.1683
     20 C          62.7129   87.9732    9.9303 C.3     1  UNL1        0.1188
     21 N          62.4165   89.0342   10.9484 N.3     1  UNL1       -0.2627
     22 C          60.9339   89.2617   10.9625 C.3     1  UNL1        0.1022
     23 C          66.4524   91.8694   14.3650 C.ar    1  UNL1        0.0357
     24 C          67.8698   92.0067   13.8938 C.ar    1  UNL1        0.0323
     25 C          68.8788   92.7155   14.7479 C.ar    1  UNL1        0.1673
     26 F          70.2962   92.8528   14.2766 F       1  UNL1       -0.2018
     27 C          68.4703   93.2871   16.0732 C.ar    1  UNL1        0.1696
     28 F          69.4793   93.9959   16.9273 F       1  UNL1       -0.2017
     29 C          67.0529   93.1498   16.5444 C.ar    1  UNL1        0.0613
     30 C          66.0439   92.4410   15.6903 C.ar    1  UNL1        0.1408
     31 F          64.6265   92.3037   16.1616 F       1  UNL1       -0.2043
@<TRIPOS>BOND
     1    10    11    1
     2    11    12   ar
     3    12    13   ar
     4    13    14   ar
     5    14    15   ar
     6    15    16   ar
     7    16    17   ar
     8    17    18   ar
     9    18    19   ar
    10    17    20    1
    11    20    21    1
    12     1    21    1
    13     1     2    1
    14     2     3    1
    15     3     4    1
    16     4    23    1
    17    23    24   ar
    18    24    25   ar
    19    25    26    1
    20    25    27   ar
    21    27    28    1
    22    27    29   ar
    23    29    30   ar
    24    30    31    1
    25     4     5    1
    26     5     6    1
    27     5     7    1
    28    21    22    1
    29    19    11   ar
    30     7     1    1
    31    18    13   ar
    32    30    23   ar
    33    22    16    1
    34     6     8    1
    35     6     9    1
