@<TRIPOS>MOLECULE
*****
 45 51 0 0 0
SMALL
GASTEIGER

@<TRIPOS>ATOM
      1 C          62.7736   86.0135   12.2394 C.3     1  UNL1        0.0554
      2 C          62.0088   86.7594   11.1864 C.ar    1  UNL1       -0.0164
      3 C          61.2270   86.0054   10.1519 C.ar    1  UNL1        0.0360
      4 C          60.4622   86.7512    9.0988 C.ar    1  UNL1        0.1761
      5 C          60.4792   88.2510    9.0804 C.ar    1  UNL1        0.1762
      6 C          61.2610   89.0050   10.1149 C.ar    1  UNL1        0.0379
      7 C          62.0258   88.2591   11.1679 C.ar    1  UNL1        0.0043
      8 C          62.8076   89.0131   12.2026 C.3     1  UNL1        0.1439
      9 C          63.5724   88.2673   13.2556 C.3     1  UNL1        0.0865
     10 C          64.4269   88.7352   14.3962 C.3     1  UNL1        0.2117
     11 O          64.9380   87.5246   15.1195 O.3     1  UNL1       -0.4484
     12 C          64.3994   86.3085   14.4260 C.2     1  UNL1        0.3173
     13 O          64.6591   84.8836   14.8160 O.2     1  UNL1       -0.2501
     14 C          63.5554   86.7675   13.2740 C.3     1  UNL1        0.1134
     15 O          59.6353   88.7100    7.9284 O.3     1  UNL1       -0.4346
     16 C          59.0967   87.4939    7.2349 C.3     1  UNL1        0.4294
     17 O          59.6078   86.2833    7.9583 O.3     1  UNL1       -0.4346
     18 C          62.1134   82.2852   13.4282 C.ar    1  UNL1        0.1749
     19 C          62.1304   83.7849   13.4098 C.ar    1  UNL1        0.0363
     20 C          62.7566   84.5138   12.2579 C.ar    1  UNL1       -0.0117
     21 C          63.3657   83.7428   11.1245 C.ar    1  UNL1        0.0363
     22 C          63.3487   82.2430   11.1429 C.ar    1  UNL1        0.1749
     23 C          62.7226   81.5142   12.2948 C.ar    1  UNL1        0.2024
     24 O          62.7055   80.0144   12.3133 O.3     1  UNL1       -0.5009
     25 H          63.0860   79.5328   11.6053 H       1  UNL1        0.2924
     26 C          60.3115   80.6545   14.3470 C.3     1  UNL1        0.2526
     27 O          61.4872   81.5563   14.5801 O.3     1  UNL1       -0.4683
     28 O          63.9578   81.4720   10.0096 O.3     1  UNL1       -0.4683
     29 C          63.3403   80.1797    9.5642 C.3     1  UNL1        0.2526
     30 O          62.8246   90.5129   12.1841 O.3     1  UNL1       -0.3265
     31 C          64.0366   91.2552   12.6637 C.3     1  UNL1        0.2659
     32 O          64.3073   91.3790   14.1338 O.3     1  UNL1       -0.3259
     33 C          65.5193   92.1212   14.6135 C.3     1  UNL1        0.1769
     34 C          65.7899   92.2449   16.0837 C.3     1  UNL1        0.1768
     35 O          67.0019   92.9872   16.5633 O.3     1  UNL1       -0.3278
     36 C          67.9433   93.6058   15.5727 C.3     1  UNL1        0.2354
     37 C          69.1553   94.3481   16.0524 C.3     1  UNL1        0.0665
     38 O          67.6727   93.4821   14.1026 O.3     1  UNL1       -0.3278
     39 C          66.4607   92.7398   13.6229 C.3     1  UNL1        0.1765
     40 C          66.1900   92.6161   12.1528 C.3     1  UNL1        0.1719
     41 O          67.1314   93.2346   11.1623 O.3     1  UNL1       -0.3794
     42 C          64.9780   91.8738   11.6732 C.3     1  UNL1        0.1964
     43 O          64.7074   91.7501   10.2030 O.3     1  UNL1       -0.3775
     44 H          67.8562   93.6728   11.6351 H       1  UNL1        0.2105
     45 H          65.4071   92.2024    9.7063 H       1  UNL1        0.2106
@<TRIPOS>BOND
     1    26    27    1
     2    27    18    1
     3    18    19   ar
     4    19    20   ar
     5     1    20    1
     6     1     2    1
     7     2     3   ar
     8     3     4   ar
     9     4     5   ar
    10     5     6   ar
    11     6     7   ar
    12     7     8    1
    13     8    30    1
    14    31    30    1
    15    31    32    1
    16    32    33    1
    17    33    34    1
    18    34    35    1
    19    35    36    1
    20    36    37    1
    21    36    38    1
    22    39    38    1
    23    39    40    1
    24    40    41    1
    25    40    42    1
    26    42    43    1
    27     8     9    1
    28     9    10    1
    29    10    11    1
    30    11    12    1
    31    12    13    2
    32    14    12    1
    33     5    15    1
    34    15    16    1
    35    16    17    1
    36    20    21   ar
    37    21    22   ar
    38    22    28    1
    39    28    29    1
    40    22    23   ar
    41    23    24    1
    42    23    18   ar
    43    14     1    1
    44     7     2   ar
    45    42    31    1
    46    14     9    1
    47    17     4    1
    48    39    33    1
    49    41    44    1
    50    43    45    1
    51    24    25    1
@<TRIPOS>MOLECULE
*****
 45 51 0 0 0
SMALL
GASTEIGER

@<TRIPOS>ATOM
      1 C          62.8401   85.4492   12.3148 C.3     1  UNL1        0.0554
      2 C          62.1475   86.2465   11.2495 C.ar    1  UNL1       -0.0164
      3 C          61.3537   85.5471   10.1862 C.ar    1  UNL1        0.0360
      4 C          60.6611   86.3443    9.1209 C.ar    1  UNL1        0.1761
      5 C          60.7623   87.8409    9.1190 C.ar    1  UNL1        0.1762
      6 C          61.5561   88.5403   10.1824 C.ar    1  UNL1        0.0379
      7 C          62.2487   87.7430   11.2477 C.ar    1  UNL1        0.0043
      8 C          63.0425   88.4424   12.3111 C.3     1  UNL1        0.1439
      9 C          63.7351   87.6452   13.3764 C.3     1  UNL1        0.0865
     10 C          64.5825   88.0539   14.5446 C.3     1  UNL1        0.2117
     11 O          65.0050   86.8099   15.2685 O.3     1  UNL1       -0.4484
     12 C          64.4188   85.6324   14.5477 C.2     1  UNL1        0.3173
     13 O          64.5877   84.1916   14.9292 O.2     1  UNL1       -0.2501
     14 C          63.6338   86.1486   13.3782 C.3     1  UNL1        0.1134
     15 O          59.9774   88.3571    7.9497 O.3     1  UNL1       -0.4346
     16 C          59.3912   87.1796    7.2288 C.3     1  UNL1        0.4294
     17 O          59.8137   85.9356    7.9527 O.3     1  UNL1       -0.4346
     18 C          63.2337   81.6627   11.1937 C.ar    1  UNL1        0.1749
     19 C          63.3349   83.1592   11.1918 C.ar    1  UNL1        0.0363
     20 C          62.7389   83.9527   12.3167 C.ar    1  UNL1       -0.0117
     21 C          62.0416   83.2495   13.4433 C.ar    1  UNL1        0.0363
     22 C          61.9404   81.7529   13.4453 C.ar    1  UNL1        0.1749
     23 C          62.5364   80.9595   12.3204 C.ar    1  UNL1        0.2024
     24 O          62.4353   79.4629   12.3223 O.3     1  UNL1       -0.5009
     25 H          61.9997   79.0236   13.0261 H       1  UNL1        0.2924
     26 C          63.1222   79.6515    9.5528 C.3     1  UNL1        0.2526
     27 O          63.8298   80.8692   10.0688 O.3     1  UNL1       -0.4683
     28 O          61.2432   81.0497   14.5719 O.3     1  UNL1       -0.4683
     29 C          59.9374   80.3532   14.3276 C.3     1  UNL1        0.2526
     30 O          63.1437   89.9390   12.3093 O.3     1  UNL1       -0.3265
     31 C          64.0923   90.6277   13.2451 C.3     1  UNL1        0.2659
     32 O          65.4296   91.0925   12.7497 O.3     1  UNL1       -0.3259
     33 C          66.3782   91.7812   13.6855 C.3     1  UNL1        0.1769
     34 C          67.7156   92.2459   13.1900 C.3     1  UNL1        0.1768
     35 O          68.6641   92.9347   14.1258 O.3     1  UNL1       -0.3278
     36 C          68.2754   93.1588   15.5571 C.3     1  UNL1        0.2354
     37 C          69.2240   93.8475   16.4929 C.3     1  UNL1        0.0665
     38 O          66.9380   92.6941   16.0526 O.3     1  UNL1       -0.3278
     39 C          65.9895   92.0053   15.1168 C.3     1  UNL1        0.1765
     40 C          64.6521   91.5406   15.6122 C.3     1  UNL1        0.1719
     41 O          64.2634   91.7646   17.0435 O.3     1  UNL1       -0.3794
     42 C          63.7035   90.8518   14.6764 C.3     1  UNL1        0.1964
     43 O          62.3662   90.3871   15.1719 O.3     1  UNL1       -0.3775
     44 H          64.9842   92.2189   17.5071 H       1  UNL1        0.2105
     45 H          62.2750   90.6082   16.1119 H       1  UNL1        0.2106
@<TRIPOS>BOND
     1    26    27    1
     2    27    18    1
     3    18    19   ar
     4    19    20   ar
     5     1    20    1
     6     1     2    1
     7     2     3   ar
     8     3     4   ar
     9     4     5   ar
    10     5     6   ar
    11     6     7   ar
    12     7     8    1
    13     8    30    1
    14    31    30    1
    15    31    32    1
    16    32    33    1
    17    33    34    1
    18    34    35    1
    19    35    36    1
    20    36    37    1
    21    36    38    1
    22    39    38    1
    23    39    40    1
    24    40    41    1
    25    40    42    1
    26    42    43    1
    27     8     9    1
    28     9    10    1
    29    10    11    1
    30    11    12    1
    31    12    13    2
    32    14    12    1
    33     5    15    1
    34    15    16    1
    35    16    17    1
    36    20    21   ar
    37    21    22   ar
    38    22    28    1
    39    28    29    1
    40    22    23   ar
    41    23    24    1
    42    23    18   ar
    43    14     1    1
    44     7     2   ar
    45    42    31    1
    46    14     9    1
    47    17     4    1
    48    39    33    1
    49    41    44    1
    50    43    45    1
    51    24    25    1
@<TRIPOS>MOLECULE
*****
 45 51 0 0 0
SMALL
GASTEIGER

@<TRIPOS>ATOM
      1 C          65.4236   92.3815   12.7891 C.3     1  UNL1        0.0554
      2 C          64.3069   91.4506   12.4192 C.ar    1  UNL1       -0.0164
      3 C          63.8525   91.3540   10.9930 C.ar    1  UNL1        0.0360
      4 C          62.7359   90.4233   10.6230 C.ar    1  UNL1        0.1761
      5 C          62.0737   89.5892   11.6793 C.ar    1  UNL1        0.1762
      6 C          62.5281   89.6858   13.1055 C.ar    1  UNL1        0.0379
      7 C          63.6448   90.6166   13.4755 C.ar    1  UNL1        0.0043
      8 C          64.0992   90.7132   14.9018 C.3     1  UNL1        0.1439
      9 C          65.2158   91.6439   15.2717 C.3     1  UNL1        0.0865
     10 C          65.8739   91.9503   16.5844 C.3     1  UNL1        0.2117
     11 O          66.9427   92.9738   16.3394 O.3     1  UNL1       -0.4484
     12 C          66.9453   93.3000   14.8753 C.2     1  UNL1        0.3173
     13 O          67.8554   94.2766   14.1911 O.2     1  UNL1       -0.2501
     14 C          65.8780   92.4781   14.2154 C.3     1  UNL1        0.1134
     15 O          61.0064   88.7673   11.0195 O.3     1  UNL1       -0.4346
     16 C          61.0090   89.0935    9.5554 C.3     1  UNL1        0.4294
     17 O          62.0779   90.1169    9.3104 O.3     1  UNL1       -0.4346
     18 C          66.1911   95.3980   10.3273 C.ar    1  UNL1        0.1749
     19 C          65.5290   94.5639   11.3835 C.ar    1  UNL1        0.0363
     20 C          66.0857   93.2155   11.7329 C.ar    1  UNL1       -0.0117
     21 C          67.3047   92.7014   11.0259 C.ar    1  UNL1        0.0363
     22 C          67.9669   93.5355    9.9696 C.ar    1  UNL1        0.1749
     23 C          67.4101   94.8838    9.6203 C.ar    1  UNL1        0.2024
     24 O          68.0723   95.7179    8.5640 O.3     1  UNL1       -0.5009
     25 H          68.8337   95.3967    8.1224 H       1  UNL1        0.2924
     26 C          64.2926   96.8552    9.3162 C.3     1  UNL1        0.2526
     27 O          65.6343   96.7464    9.9778 O.3     1  UNL1       -0.4683
     28 O          69.1858   93.0213    9.2627 O.3     1  UNL1       -0.4683
     29 C          69.0626   91.8995    8.2747 C.3     1  UNL1        0.2526
     30 O          63.4370   89.8791   15.9580 O.3     1  UNL1       -0.3265
     31 C          63.4117   88.3850   15.8274 C.3     1  UNL1        0.2659
     32 O          63.7359   87.7415   14.5118 O.3     1  UNL1       -0.3259
     33 C          63.7106   86.2474   14.3812 C.3     1  UNL1        0.1769
     34 C          64.0347   85.6041   13.0655 C.3     1  UNL1        0.1768
     35 O          64.0094   84.1100   12.9349 O.3     1  UNL1       -0.3278
     36 C          63.6600   83.2593   14.1199 C.3     1  UNL1        0.2354
     37 C          63.6347   81.7652   13.9892 C.3     1  UNL1        0.0665
     38 O          63.3359   83.9027   15.4355 O.3     1  UNL1       -0.3278
     39 C          63.3611   85.3968   15.5662 C.3     1  UNL1        0.1765
     40 C          63.0370   86.0402   16.8818 C.3     1  UNL1        0.1719
     41 O          62.6876   85.1895   18.0668 O.3     1  UNL1       -0.3794
     42 C          63.0623   87.5343   17.0124 C.3     1  UNL1        0.1964
     43 O          62.7382   88.1777   18.3281 O.3     1  UNL1       -0.3775
     44 H          62.7175   84.2538   17.8131 H       1  UNL1        0.2105
     45 H          62.5364   87.4910   18.9828 H       1  UNL1        0.2106
@<TRIPOS>BOND
     1    26    27    1
     2    27    18    1
     3    18    19   ar
     4    19    20   ar
     5     1    20    1
     6     1     2    1
     7     2     3   ar
     8     3     4   ar
     9     4     5   ar
    10     5     6   ar
    11     6     7   ar
    12     7     8    1
    13     8    30    1
    14    31    30    1
    15    31    32    1
    16    32    33    1
    17    33    34    1
    18    34    35    1
    19    35    36    1
    20    36    37    1
    21    36    38    1
    22    39    38    1
    23    39    40    1
    24    40    41    1
    25    40    42    1
    26    42    43    1
    27     8     9    1
    28     9    10    1
    29    10    11    1
    30    11    12    1
    31    12    13    2
    32    14    12    1
    33     5    15    1
    34    15    16    1
    35    16    17    1
    36    20    21   ar
    37    21    22   ar
    38    22    28    1
    39    28    29    1
    40    22    23   ar
    41    23    24    1
    42    23    18   ar
    43    14     1    1
    44     7     2   ar
    45    42    31    1
    46    14     9    1
    47    17     4    1
    48    39    33    1
    49    41    44    1
    50    43    45    1
    51    24    25    1
@<TRIPOS>MOLECULE
*****
 45 51 0 0 0
SMALL
GASTEIGER

@<TRIPOS>ATOM
      1 C          65.4271   92.3826   12.7849 C.3     1  UNL1        0.0554
      2 C          64.3068   91.4549   12.4180 C.ar    1  UNL1       -0.0164
      3 C          63.8451   91.3632   10.9938 C.ar    1  UNL1        0.0360
      4 C          62.7249   90.4356   10.6268 C.ar    1  UNL1        0.1761
      5 C          62.0665   89.5995   11.6840 C.ar    1  UNL1        0.1762
      6 C          62.5283   89.6912   13.1082 C.ar    1  UNL1        0.0379
      7 C          63.6485   90.6189   13.4751 C.ar    1  UNL1        0.0043
      8 C          64.1104   90.7106   14.8994 C.3     1  UNL1        0.1439
      9 C          65.2305   91.6383   15.2664 C.3     1  UNL1        0.0865
     10 C          65.8957   91.9396   16.5766 C.3     1  UNL1        0.2117
     11 O          66.9652   92.9619   16.3292 O.3     1  UNL1       -0.4484
     12 C          66.9610   93.2923   14.8660 C.2     1  UNL1        0.3173
     13 O          67.8693   94.2693   14.1801 O.2     1  UNL1       -0.2501
     14 C          65.8888   92.4742   14.2091 C.3     1  UNL1        0.1134
     15 O          60.9945   88.7815   11.0272 O.3     1  UNL1       -0.4346
     16 C          60.9903   89.1119    9.5641 C.3     1  UNL1        0.4294
     17 O          62.0597   90.1342    9.3166 O.3     1  UNL1       -0.4346
     18 C          67.9612   93.5423    9.9596 C.ar    1  UNL1        0.1749
     19 C          67.3028   92.7064   11.0167 C.ar    1  UNL1        0.0363
     20 C          66.0854   93.2185   11.7278 C.ar    1  UNL1       -0.0117
     21 C          65.5263   94.5667   11.3816 C.ar    1  UNL1        0.0363
     22 C          66.1847   95.4027   10.3243 C.ar    1  UNL1        0.1749
     23 C          67.4021   94.8905    9.6133 C.ar    1  UNL1        0.2024
     24 O          68.0605   95.7265    8.5561 O.3     1  UNL1       -0.5009
     25 H          67.7112   96.5687    8.3398 H       1  UNL1        0.2924
     26 C          69.0616   91.8765    8.2970 C.3     1  UNL1        0.2526
     27 O          69.1786   93.0301    9.2485 O.3     1  UNL1       -0.4683
     28 O          65.6256   96.7509    9.9781 O.3     1  UNL1       -0.4683
     29 C          64.3474   96.8556    9.2003 C.3     1  UNL1        0.2526
     30 O          63.4520   89.8746   15.9566 O.3     1  UNL1       -0.3265
     31 C          63.4211   88.3811   15.8205 C.3     1  UNL1        0.2659
     32 O          63.7615   87.7404   14.5077 O.3     1  UNL1       -0.3259
     33 C          63.7306   86.2469   14.3716 C.3     1  UNL1        0.1769
     34 C          64.0710   85.6062   13.0588 C.3     1  UNL1        0.1768
     35 O          64.0402   84.1127   12.9227 O.3     1  UNL1       -0.3278
     36 C          63.6689   83.2599   14.0995 C.3     1  UNL1        0.2354
     37 C          63.6381   81.7664   13.9634 C.3     1  UNL1        0.0665
     38 O          63.3286   83.9006   15.4124 O.3     1  UNL1       -0.3278
     39 C          63.3594   85.3941   15.5485 C.3     1  UNL1        0.1765
     40 C          63.0191   86.0348   16.8613 C.3     1  UNL1        0.1719
     41 O          62.6478   85.1820   18.0381 O.3     1  UNL1       -0.3794
     42 C          63.0499   87.5283   16.9974 C.3     1  UNL1        0.1964
     43 O          62.7095   88.1689   18.3102 O.3     1  UNL1       -0.3775
     44 H          62.6768   84.2469   17.7817 H       1  UNL1        0.2105
     45 H          62.4946   87.4811   18.9596 H       1  UNL1        0.2106
@<TRIPOS>BOND
     1    26    27    1
     2    27    18    1
     3    18    19   ar
     4    19    20   ar
     5     1    20    1
     6     1     2    1
     7     2     3   ar
     8     3     4   ar
     9     4     5   ar
    10     5     6   ar
    11     6     7   ar
    12     7     8    1
    13     8    30    1
    14    31    30    1
    15    31    32    1
    16    32    33    1
    17    33    34    1
    18    34    35    1
    19    35    36    1
    20    36    37    1
    21    36    38    1
    22    39    38    1
    23    39    40    1
    24    40    41    1
    25    40    42    1
    26    42    43    1
    27     8     9    1
    28     9    10    1
    29    10    11    1
    30    11    12    1
    31    12    13    2
    32    14    12    1
    33     5    15    1
    34    15    16    1
    35    16    17    1
    36    20    21   ar
    37    21    22   ar
    38    22    28    1
    39    28    29    1
    40    22    23   ar
    41    23    24    1
    42    23    18   ar
    43    14     1    1
    44     7     2   ar
    45    42    31    1
    46    14     9    1
    47    17     4    1
    48    39    33    1
    49    41    44    1
    50    43    45    1
    51    24    25    1
