@<TRIPOS>MOLECULE
*****
 33 37 0 0 0
SMALL
GASTEIGER

@<TRIPOS>ATOM
      1 C          66.2417   92.6982   12.6517 C.ar    1  UNL1        0.0436
      2 C          67.2996   92.7155   13.7149 C.ar    1  UNL1        0.0142
      3 C          67.1948   91.7921   14.8923 C.ar    1  UNL1        0.0010
      4 C          66.0321   90.8513   15.0064 C.ar    1  UNL1       -0.0032
      5 C          64.9742   90.8339   13.9432 C.ar    1  UNL1       -0.0091
      6 C          65.0790   91.7574   12.7659 C.ar    1  UNL1       -0.0101
      7 C          64.0210   91.7400   11.7026 C.3     1  UNL1        0.0444
      8 C          62.8583   90.7992   11.8167 C.3     1  UNL1        0.0749
      9 N          62.7536   89.8758   12.9942 N.3     1  UNL1       -0.2934
     10 C          63.8115   89.8931   14.0574 C.3     1  UNL1        0.0954
     11 H          62.7255   88.9264   12.6222 H       1  UNL1        0.1236
     12 C          66.5559   95.4685    9.1194 C.3     1  UNL1        0.0610
     13 C          65.8804   95.9300   10.3767 C.3     1  UNL1        0.0374
     14 C          65.7757   95.0065   11.5541 C.3     1  UNL1        0.0922
     15 N          66.3464   93.6216   11.4742 N.pl3   1  UNL1       -0.3077
     16 C          67.0219   93.1602   10.2170 C.3     1  UNL1        0.0922
     17 C          67.1267   94.0836    9.0396 C.3     1  UNL1        0.0374
     18 C          68.0069   96.8543    7.4690 C.3     1  UNL1        0.0896
     19 N          66.6606   96.3919    7.9420 N.3     1  UNL1       -0.2715
     20 C          65.4192   96.8529    7.2376 C.3     1  UNL1        0.0896
     21 C          61.8004   90.7819   10.7535 C.3     1  UNL1        0.0886
     22 N          60.6477   89.8277   10.8580 N.3     1  UNL1       -0.2667
     23 C          59.5469   90.0864   11.8436 C.3     1  UNL1        0.0899
     24 C          60.5958   88.6150    9.9768 C.3     1  UNL1        0.0978
     25 C          59.8228   88.6541    8.6918 C.3     1  UNL1        0.0224
     26 C          59.7709   87.4413    7.8107 C.3     1  UNL1        0.0065
     27 C          60.4919   86.1894    8.2144 C.3     1  UNL1        0.0277
     28 C          61.2648   86.1503    9.4993 C.ar    1  UNL1       -0.0073
     29 C          61.9858   84.8985    9.9030 C.ar    1  UNL1       -0.0015
     30 C          62.7588   84.8594   11.1880 C.ar    1  UNL1        0.0203
     31 C          62.8107   86.0721   12.0691 C.ar    1  UNL1        0.0985
     32 N          62.0897   87.3240   11.6654 N.ar    1  UNL1       -0.2471
     33 C          61.3168   87.3631   10.3805 C.ar    1  UNL1        0.0695
@<TRIPOS>BOND
     1    18    19    1
     2    19    20    1
     3    19    12    1
     4    12    13    1
     5    13    14    1
     6    14    15    1
     7    15     1    1
     8     1     2   ar
     9     2     3   ar
    10     3     4   ar
    11     4     5   ar
    12     5     6   ar
    13     6     7    1
    14     7     8    1
    15     8    21    1
    16    21    22    1
    17    22    23    1
    18    24    22    1
    19    24    25    1
    20    25    26    1
    21    26    27    1
    22    27    28    1
    23    28    29   ar
    24    29    30   ar
    25    30    31   ar
    26    31    32   ar
    27    32    33   ar
    28     8     9    1
    29     9    10    1
    30    15    16    1
    31    16    17    1
    32    17    12    1
    33     6     1   ar
    34    33    24    1
    35    10     5    1
    36    33    28   ar
    37     9    11    1
@<TRIPOS>MOLECULE
*****
 33 37 0 0 0
SMALL
GASTEIGER

@<TRIPOS>ATOM
      1 C          65.4044   91.4488   14.5136 C.ar    1  UNL1        0.0436
      2 C          66.3601   92.2106   15.3831 C.ar    1  UNL1        0.0142
      3 C          67.0200   93.4531   14.8628 C.ar    1  UNL1        0.0010
      4 C          66.7242   93.9337   13.4730 C.ar    1  UNL1       -0.0032
      5 C          65.7684   93.1719   12.6035 C.ar    1  UNL1       -0.0091
      6 C          65.1085   91.9294   13.1238 C.ar    1  UNL1       -0.0101
      7 C          64.1527   91.1675   12.2542 C.3     1  UNL1        0.0444
      8 C          63.8569   91.6481   10.8645 C.3     1  UNL1        0.0749
      9 N          64.5169   92.8907   10.3442 N.3     1  UNL1       -0.2934
     10 C          65.4726   93.6525   11.2137 C.3     1  UNL1        0.0954
     11 H          63.7696   93.5371   10.0913 H       1  UNL1        0.1236
     12 C          63.4245   87.7212   16.0743 C.3     1  UNL1        0.0610
     13 C          64.3991   87.6330   14.9375 C.3     1  UNL1        0.0374
     14 C          65.0591   88.8755   14.4173 C.3     1  UNL1        0.0922
     15 N          64.7444   90.2062   15.0338 N.pl3   1  UNL1       -0.3077
     16 C          63.7697   90.2945   16.1706 C.3     1  UNL1        0.0922
     17 C          63.1098   89.0520   16.6908 C.3     1  UNL1        0.0374
     18 C          62.5221   85.3177   15.6764 C.3     1  UNL1        0.0896
     19 N          62.7645   86.4787   16.5945 N.3     1  UNL1       -0.2715
     20 C          62.3470   86.3973   18.0330 C.3     1  UNL1        0.0896
     21 C          62.9012   90.8863    9.9949 C.3     1  UNL1        0.0886
     22 N          61.7756   90.1132   10.6157 N.3     1  UNL1       -0.2667
     23 C          60.7054   90.8320   11.3827 C.3     1  UNL1        0.0899
     24 C          61.7200   88.6214   10.4694 C.3     1  UNL1        0.0978
     25 C          62.5033   87.7466   11.4029 C.3     1  UNL1        0.0224
     26 C          62.4477   86.2548   11.2567 C.3     1  UNL1        0.0065
     27 C          61.6089   85.6377   10.1770 C.3     1  UNL1        0.0277
     28 C          60.8257   86.5125    9.2436 C.ar    1  UNL1       -0.0073
     29 C          59.9869   85.8954    8.1639 C.ar    1  UNL1       -0.0015
     30 C          59.2036   86.7703    7.2304 C.ar    1  UNL1        0.0203
     31 C          59.2592   88.2621    7.3767 C.ar    1  UNL1        0.0985
     32 N          60.0980   88.8791    8.4563 N.ar    1  UNL1       -0.2471
     33 C          60.8812   88.0044    9.3898 C.ar    1  UNL1        0.0695
@<TRIPOS>BOND
     1    18    19    1
     2    19    20    1
     3    19    12    1
     4    12    13    1
     5    13    14    1
     6    14    15    1
     7    15     1    1
     8     1     2   ar
     9     2     3   ar
    10     3     4   ar
    11     4     5   ar
    12     5     6   ar
    13     6     7    1
    14     7     8    1
    15     8    21    1
    16    21    22    1
    17    22    23    1
    18    24    22    1
    19    24    25    1
    20    25    26    1
    21    26    27    1
    22    27    28    1
    23    28    29   ar
    24    29    30   ar
    25    30    31   ar
    26    31    32   ar
    27    32    33   ar
    28     8     9    1
    29     9    10    1
    30    15    16    1
    31    16    17    1
    32    17    12    1
    33     6     1   ar
    34    33    24    1
    35    10     5    1
    36    33    28   ar
    37     9    11    1
@<TRIPOS>MOLECULE
*****
 33 37 0 0 0
SMALL
GASTEIGER

@<TRIPOS>ATOM
      1 C          66.3979   93.0533   13.1040 C.ar    1  UNL1        0.0436
      2 C          67.4284   93.2583   14.1745 C.ar    1  UNL1        0.0142
      3 C          67.3819   92.4353   15.4276 C.ar    1  UNL1        0.0010
      4 C          66.3050   91.4072   15.6103 C.ar    1  UNL1       -0.0032
      5 C          65.2745   91.2022   14.5398 C.ar    1  UNL1       -0.0091
      6 C          65.3209   92.0253   13.2866 C.ar    1  UNL1       -0.0101
      7 C          64.2904   91.8203   12.2161 C.3     1  UNL1        0.0444
      8 C          63.2134   90.7923   12.3987 C.3     1  UNL1        0.0749
      9 N          63.1670   89.9692   13.6520 N.3     1  UNL1       -0.2934
     10 C          64.1975   90.1742   14.7224 C.3     1  UNL1        0.0954
     11 H          63.2306   88.9924   13.3652 H       1  UNL1        0.1236
     12 C          66.5370   95.5225    9.3444 C.3     1  UNL1        0.0610
     13 C          66.8876   94.0648    9.2977 C.3     1  UNL1        0.0374
     14 C          66.8412   93.2417   10.5509 C.3     1  UNL1        0.0922
     15 N          66.4443   93.8764   11.8508 N.pl3   1  UNL1       -0.3077
     16 C          66.0937   95.3341   11.8975 C.3     1  UNL1        0.0922
     17 C          66.1401   96.1571   10.6443 C.3     1  UNL1        0.0374
     18 C          67.8970   96.8560    7.5775 C.3     1  UNL1        0.0896
     19 N          66.5834   96.3455    8.0913 N.3     1  UNL1       -0.2715
     20 C          65.3163   96.6581    7.3520 C.3     1  UNL1        0.0896
     21 C          62.1829   90.5873   11.3282 C.3     1  UNL1        0.0886
     22 N          61.1550   89.5047   11.4742 N.3     1  UNL1       -0.2667
     23 C          59.8630   89.7877   12.1820 C.3     1  UNL1        0.0899
     24 C          61.4189   88.1392   10.9124 C.3     1  UNL1        0.0978
     25 C          62.3539   87.2045   11.6210 C.3     1  UNL1        0.0224
     26 C          62.6178   85.8390   11.0592 C.3     1  UNL1        0.0065
     27 C          61.9468   85.4081    9.7887 C.3     1  UNL1        0.0277
     28 C          61.0118   86.3427    9.0801 C.ar    1  UNL1       -0.0073
     29 C          60.3407   85.9119    7.8097 C.ar    1  UNL1       -0.0015
     30 C          59.4056   86.8466    7.1011 C.ar    1  UNL1        0.0203
     31 C          59.1417   88.2121    7.6629 C.ar    1  UNL1        0.0985
     32 N          59.8128   88.6430    8.9333 N.ar    1  UNL1       -0.2471
     33 C          60.7478   87.7083    9.6419 C.ar    1  UNL1        0.0695
@<TRIPOS>BOND
     1    18    19    1
     2    19    20    1
     3    19    12    1
     4    12    13    1
     5    13    14    1
     6    14    15    1
     7    15     1    1
     8     1     2   ar
     9     2     3   ar
    10     3     4   ar
    11     4     5   ar
    12     5     6   ar
    13     6     7    1
    14     7     8    1
    15     8    21    1
    16    21    22    1
    17    22    23    1
    18    24    22    1
    19    24    25    1
    20    25    26    1
    21    26    27    1
    22    27    28    1
    23    28    29   ar
    24    29    30   ar
    25    30    31   ar
    26    31    32   ar
    27    32    33   ar
    28     8     9    1
    29     9    10    1
    30    15    16    1
    31    16    17    1
    32    17    12    1
    33     6     1   ar
    34    33    24    1
    35    10     5    1
    36    33    28   ar
    37     9    11    1
@<TRIPOS>MOLECULE
*****
 33 37 0 0 0
SMALL
GASTEIGER

@<TRIPOS>ATOM
      1 C          62.7059   84.4160   11.7869 C.ar    1  UNL1        0.0436
      2 C          62.5348   82.9766   11.4013 C.ar    1  UNL1        0.0142
      3 C          63.1808   81.8989   12.2206 C.ar    1  UNL1        0.0010
      4 C          63.9979   82.2606   13.4254 C.ar    1  UNL1       -0.0032
      5 C          64.1690   83.7000   13.8109 C.ar    1  UNL1       -0.0091
      6 C          63.5230   84.7777   12.9916 C.ar    1  UNL1       -0.0101
      7 C          63.6942   86.2173   13.3771 C.3     1  UNL1        0.0444
      8 C          64.5112   86.5790   14.5819 C.3     1  UNL1        0.0749
      9 N          65.1572   85.5012   15.4012 N.3     1  UNL1       -0.2934
     10 C          64.9861   84.0618   15.0157 C.3     1  UNL1        0.0954
     11 H          64.7964   85.5967   16.3504 H       1  UNL1        0.1236
     12 C          60.7680   87.6493    9.3291 C.3     1  UNL1        0.0610
     13 C          61.7319   86.6956    8.6876 C.3     1  UNL1        0.0374
     14 C          62.3778   85.6178    9.5069 C.3     1  UNL1        0.0922
     15 N          62.0600   85.4938   10.9676 N.pl3   1  UNL1       -0.3077
     16 C          61.0961   86.4475   11.6090 C.3     1  UNL1        0.0922
     17 C          60.4501   87.5253   10.7898 C.3     1  UNL1        0.0374
     18 C          60.2013   90.1571    8.9556 C.3     1  UNL1        0.0896
     19 N          60.1221   88.7271    8.5099 N.3     1  UNL1       -0.2715
     20 C          59.3969   88.3748    7.2450 C.3     1  UNL1        0.0896
     21 C          64.6824   88.0185   14.9674 C.3     1  UNL1        0.0886
     22 N          63.6199   89.0191   14.6211 N.3     1  UNL1       -0.2667
     23 C          62.4101   89.1618   15.4964 C.3     1  UNL1        0.0899
     24 C          63.7672   89.8770   13.3996 C.3     1  UNL1        0.0978
     25 C          63.0187   89.5322   12.1462 C.3     1  UNL1        0.0224
     26 C          63.1660   90.3901   10.9246 C.3     1  UNL1        0.0065
     27 C          64.0617   91.5929   10.9564 C.3     1  UNL1        0.0277
     28 C          64.8102   91.9377   12.2097 C.ar    1  UNL1       -0.0073
     29 C          65.7060   93.1404   12.2414 C.ar    1  UNL1       -0.0015
     30 C          66.4545   93.4853   13.4948 C.ar    1  UNL1        0.0203
     31 C          66.3072   92.6273   14.7164 C.ar    1  UNL1        0.0985
     32 N          65.4114   91.4246   14.6846 N.ar    1  UNL1       -0.2471
     33 C          64.6630   91.0798   13.4313 C.ar    1  UNL1        0.0695
@<TRIPOS>BOND
     1    18    19    1
     2    19    20    1
     3    19    12    1
     4    12    13    1
     5    13    14    1
     6    14    15    1
     7    15     1    1
     8     1     2   ar
     9     2     3   ar
    10     3     4   ar
    11     4     5   ar
    12     5     6   ar
    13     6     7    1
    14     7     8    1
    15     8    21    1
    16    21    22    1
    17    22    23    1
    18    24    22    1
    19    24    25    1
    20    25    26    1
    21    26    27    1
    22    27    28    1
    23    28    29   ar
    24    29    30   ar
    25    30    31   ar
    26    31    32   ar
    27    32    33   ar
    28     8     9    1
    29     9    10    1
    30    15    16    1
    31    16    17    1
    32    17    12    1
    33     6     1   ar
    34    33    24    1
    35    10     5    1
    36    33    28   ar
    37     9    11    1
@<TRIPOS>MOLECULE
*****
 33 37 0 0 0
SMALL
GASTEIGER

@<TRIPOS>ATOM
      1 C          65.7854   92.6736   13.4717 C.ar    1  UNL1        0.0436
      2 C          66.3739   93.1220   14.7765 C.ar    1  UNL1        0.0142
      3 C          65.9475   92.4662   16.0563 C.ar    1  UNL1        0.0010
      4 C          64.9327   91.3619   16.0314 C.ar    1  UNL1       -0.0032
      5 C          64.3441   90.9135   14.7266 C.ar    1  UNL1       -0.0091
      6 C          64.7705   91.5693   13.4468 C.ar    1  UNL1       -0.0101
      7 C          64.1820   91.1209   12.1419 C.3     1  UNL1        0.0444
      8 C          63.1671   90.0166   12.1169 C.3     1  UNL1        0.0749
      9 N          62.7408   89.3607   13.3969 N.3     1  UNL1       -0.2934
     10 C          63.3293   89.8092   14.7016 C.3     1  UNL1        0.0954
     11 H          62.9534   88.3675   13.3038 H       1  UNL1        0.1236
     12 C          67.0644   94.6411    9.6320 C.3     1  UNL1        0.0610
     13 C          67.2619   93.1662    9.8210 C.3     1  UNL1        0.0374
     14 C          66.8356   92.5104   11.1009 C.3     1  UNL1        0.0922
     15 N          66.2117   93.3294   12.1918 N.pl3   1  UNL1       -0.3077
     16 C          66.0142   94.8043   12.0028 C.3     1  UNL1        0.0922
     17 C          66.4405   95.4601   10.7229 C.3     1  UNL1        0.0374
     18 C          68.1046   94.4761    7.2570 C.3     1  UNL1        0.0896
     19 N          67.4907   95.2970    8.3521 N.3     1  UNL1       -0.2715
     20 C          67.3032   96.7737    8.1674 C.3     1  UNL1        0.0896
     21 C          62.5786   89.5682   10.8121 C.3     1  UNL1        0.0886
     22 N          61.6350   88.4027   10.7761 N.3     1  UNL1       -0.2667
     23 C          60.2418   88.5489   11.3124 C.3     1  UNL1        0.0899
     24 C          62.0846   87.0911   10.2037 C.3     1  UNL1        0.0978
     25 C          61.9383   86.8242    8.7349 C.3     1  UNL1        0.0224
     26 C          62.3879   85.5126    8.1626 C.3     1  UNL1        0.0065
     27 C          62.9837   84.4679    9.0590 C.3     1  UNL1        0.0277
     28 C          63.1300   84.7348   10.5278 C.ar    1  UNL1       -0.0073
     29 C          63.7258   83.6901   11.4242 C.ar    1  UNL1       -0.0015
     30 C          63.8721   83.9570   12.8931 C.ar    1  UNL1        0.0203
     31 C          63.4225   85.2686   13.4654 C.ar    1  UNL1        0.0985
     32 N          62.8267   86.3133   12.5690 N.ar    1  UNL1       -0.2471
     33 C          62.6804   86.0464   11.1002 C.ar    1  UNL1        0.0695
@<TRIPOS>BOND
     1    18    19    1
     2    19    20    1
     3    19    12    1
     4    12    13    1
     5    13    14    1
     6    14    15    1
     7    15     1    1
     8     1     2   ar
     9     2     3   ar
    10     3     4   ar
    11     4     5   ar
    12     5     6   ar
    13     6     7    1
    14     7     8    1
    15     8    21    1
    16    21    22    1
    17    22    23    1
    18    24    22    1
    19    24    25    1
    20    25    26    1
    21    26    27    1
    22    27    28    1
    23    28    29   ar
    24    29    30   ar
    25    30    31   ar
    26    31    32   ar
    27    32    33   ar
    28     8     9    1
    29     9    10    1
    30    15    16    1
    31    16    17    1
    32    17    12    1
    33     6     1   ar
    34    33    24    1
    35    10     5    1
    36    33    28   ar
    37     9    11    1
@<TRIPOS>MOLECULE
*****
 33 37 0 0 0
SMALL
GASTEIGER

@<TRIPOS>ATOM
      1 C          61.0840   86.3775    9.2598 C.ar    1  UNL1        0.0436
      2 C          60.4767   85.7482    8.0411 C.ar    1  UNL1        0.0142
      3 C          59.6549   86.5775    7.0994 C.ar    1  UNL1        0.0010
      4 C          59.4403   88.0360    7.3764 C.ar    1  UNL1       -0.0032
      5 C          60.0476   88.6652    8.5951 C.ar    1  UNL1       -0.0091
      6 C          60.8695   87.8360    9.5368 C.ar    1  UNL1       -0.0101
      7 C          61.4768   88.4652   10.7555 C.3     1  UNL1        0.0444
      8 C          61.2623   89.9237   11.0325 C.3     1  UNL1        0.0749
      9 N          60.4404   90.7530   10.0907 N.3     1  UNL1       -0.2934
     10 C          59.8331   90.1238    8.8720 C.3     1  UNL1        0.0954
     11 H          61.0414   91.5093    9.7631 H       1  UNL1        0.1236
     12 C          63.5497   83.8897   12.0851 C.3     1  UNL1        0.0610
     13 C          63.7500   83.7627   10.6039 C.3     1  UNL1        0.0374
     14 C          62.9280   84.5920    9.6622 C.3     1  UNL1        0.0922
     15 N          61.9060   85.5482   10.2016 N.pl3   1  UNL1       -0.3077
     16 C          61.7057   85.6752   11.6827 C.3     1  UNL1        0.0922
     17 C          62.5276   84.8460   12.6245 C.3     1  UNL1        0.0374
     18 C          65.0701   83.7107   14.1841 C.3     1  UNL1        0.0896
     19 N          64.3716   83.0605   13.0268 N.3     1  UNL1       -0.2715
     20 C          64.4948   81.5812   12.8114 C.3     1  UNL1        0.0896
     21 C          61.8696   90.5530   12.2511 C.3     1  UNL1        0.0886
     22 N          63.3199   90.3334   12.5649 N.3     1  UNL1       -0.2667
     23 C          63.7675   89.0382   13.1750 C.3     1  UNL1        0.0899
     24 C          64.3225   91.4090   12.2687 C.3     1  UNL1        0.0978
     25 C          64.5247   91.8780   10.8583 C.3     1  UNL1        0.0224
     26 C          65.5274   92.9535   10.5620 C.3     1  UNL1        0.0065
     27 C          66.3279   93.5601   11.6761 C.3     1  UNL1        0.0277
     28 C          66.1258   93.0911   13.0865 C.ar    1  UNL1       -0.0073
     29 C          66.9263   93.6977   14.2006 C.ar    1  UNL1       -0.0015
     30 C          66.7241   93.2287   15.6110 C.ar    1  UNL1        0.0203
     31 C          65.7214   92.1531   15.9072 C.ar    1  UNL1        0.0985
     32 N          64.9209   91.5465   14.7931 N.ar    1  UNL1       -0.2471
     33 C          65.1231   92.0155   13.3828 C.ar    1  UNL1        0.0695
@<TRIPOS>BOND
     1    18    19    1
     2    19    20    1
     3    19    12    1
     4    12    13    1
     5    13    14    1
     6    14    15    1
     7    15     1    1
     8     1     2   ar
     9     2     3   ar
    10     3     4   ar
    11     4     5   ar
    12     5     6   ar
    13     6     7    1
    14     7     8    1
    15     8    21    1
    16    21    22    1
    17    22    23    1
    18    24    22    1
    19    24    25    1
    20    25    26    1
    21    26    27    1
    22    27    28    1
    23    28    29   ar
    24    29    30   ar
    25    30    31   ar
    26    31    32   ar
    27    32    33   ar
    28     8     9    1
    29     9    10    1
    30    15    16    1
    31    16    17    1
    32    17    12    1
    33     6     1   ar
    34    33    24    1
    35    10     5    1
    36    33    28   ar
    37     9    11    1
@<TRIPOS>MOLECULE
*****
 33 37 0 0 0
SMALL
GASTEIGER

@<TRIPOS>ATOM
      1 C          63.5631   88.3351   15.8034 C.ar    1  UNL1        0.0436
      2 C          63.1890   88.8027   17.1786 C.ar    1  UNL1        0.0142
      3 C          62.8089   87.8052   18.2324 C.ar    1  UNL1        0.0010
      4 C          62.8029   86.3401   17.9110 C.ar    1  UNL1       -0.0032
      5 C          63.1771   85.8725   16.5357 C.ar    1  UNL1       -0.0091
      6 C          63.5572   86.8699   15.4820 C.ar    1  UNL1       -0.0101
      7 C          63.9313   86.4023   14.1066 C.3     1  UNL1        0.0444
      8 C          63.9253   84.9372   13.7852 C.3     1  UNL1        0.0749
      9 N          63.5452   83.9397   14.8391 N.3     1  UNL1       -0.2934
     10 C          63.1711   84.4073   16.2143 C.3     1  UNL1        0.0954
     11 H          64.3398   83.3095   14.9483 H       1  UNL1        0.1236
     12 C          64.7036   91.3276   12.6419 C.3     1  UNL1        0.0610
     13 C          63.4878   90.4685   12.4578 C.3     1  UNL1        0.0374
     14 C          63.1076   89.4710   13.5116 C.3     1  UNL1        0.0922
     15 N          63.9433   89.3326   14.7496 N.pl3   1  UNL1       -0.3077
     16 C          65.1591   90.1916   14.9337 C.3     1  UNL1        0.0922
     17 C          65.5392   91.1891   13.8799 C.3     1  UNL1        0.0374
     18 C          64.4100   92.2941   10.2483 C.3     1  UNL1        0.0896
     19 N          65.0837   92.3250   11.5881 N.3     1  UNL1       -0.2715
     20 C          66.1376   93.3534   11.8742 C.3     1  UNL1        0.0896
     21 C          64.2994   84.4695   12.4100 C.3     1  UNL1        0.0886
     22 N          63.2589   83.8653   11.5143 N.3     1  UNL1       -0.2667
     23 C          62.6084   82.5669   11.8900 C.3     1  UNL1        0.0899
     24 C          62.8689   84.5594   10.2431 C.3     1  UNL1        0.0978
     25 C          63.3791   84.0546    8.9259 C.3     1  UNL1        0.0224
     26 C          62.9890   84.7487    7.6547 C.3     1  UNL1        0.0065
     27 C          62.0888   85.9476    7.7006 C.3     1  UNL1        0.0277
     28 C          61.5786   86.4524    9.0177 C.ar    1  UNL1       -0.0073
     29 C          60.6783   87.6514    9.0636 C.ar    1  UNL1       -0.0015
     30 C          60.1681   88.1562   10.3808 C.ar    1  UNL1        0.0203
     31 C          60.5581   87.4621   11.6520 C.ar    1  UNL1        0.0985
     32 N          61.4584   86.2631   11.6061 N.ar    1  UNL1       -0.2471
     33 C          61.9686   85.7583   10.2890 C.ar    1  UNL1        0.0695
@<TRIPOS>BOND
     1    18    19    1
     2    19    20    1
     3    19    12    1
     4    12    13    1
     5    13    14    1
     6    14    15    1
     7    15     1    1
     8     1     2   ar
     9     2     3   ar
    10     3     4   ar
    11     4     5   ar
    12     5     6   ar
    13     6     7    1
    14     7     8    1
    15     8    21    1
    16    21    22    1
    17    22    23    1
    18    24    22    1
    19    24    25    1
    20    25    26    1
    21    26    27    1
    22    27    28    1
    23    28    29   ar
    24    29    30   ar
    25    30    31   ar
    26    31    32   ar
    27    32    33   ar
    28     8     9    1
    29     9    10    1
    30    15    16    1
    31    16    17    1
    32    17    12    1
    33     6     1   ar
    34    33    24    1
    35    10     5    1
    36    33    28   ar
    37     9    11    1
@<TRIPOS>MOLECULE
*****
 33 37 0 0 0
SMALL
GASTEIGER

@<TRIPOS>ATOM
      1 C          61.3993   86.5046    9.9688 C.ar    1  UNL1        0.0436
      2 C          60.8369   86.0699    8.6479 C.ar    1  UNL1        0.0142
      3 C          60.1919   87.0748    7.7402 C.ar    1  UNL1        0.0010
      4 C          60.1092   88.5144    8.1534 C.ar    1  UNL1       -0.0032
      5 C          60.6715   88.9491    9.4743 C.ar    1  UNL1       -0.0091
      6 C          61.3165   87.9442   10.3820 C.ar    1  UNL1       -0.0101
      7 C          61.8789   88.3788   11.7030 C.3     1  UNL1        0.0444
      8 C          61.7962   89.8184   12.1162 C.3     1  UNL1        0.0749
      9 N          61.1511   90.8233   11.2084 N.3     1  UNL1       -0.2934
     10 C          60.5888   90.3887    9.8875 C.3     1  UNL1        0.0954
     11 H          61.8546   91.5345   11.0093 H       1  UNL1        0.1236
     12 C          63.3345   83.4898   12.6922 C.3     1  UNL1        0.0610
     13 C          63.5411   83.4022   11.2091 C.3     1  UNL1        0.0374
     14 C          62.8960   84.4071   10.3013 C.3     1  UNL1        0.0922
     15 N          62.0444   85.4996   10.8766 N.pl3   1  UNL1       -0.3077
     16 C          61.8377   85.5872   12.3597 C.3     1  UNL1        0.0922
     17 C          62.4828   84.5824   13.2675 C.3     1  UNL1        0.0374
     18 C          63.9254   81.0247   13.2612 C.3     1  UNL1        0.0896
     19 N          63.9795   82.4849   13.6000 N.3     1  UNL1       -0.2715
     20 C          64.6787   82.9402   14.8465 C.3     1  UNL1        0.0896
     21 C          62.3585   90.2531   13.4371 C.3     1  UNL1        0.0886
     22 N          63.7989   89.9895   13.7623 N.3     1  UNL1       -0.2667
     23 C          64.2949   88.5789   13.8817 C.3     1  UNL1        0.0899
     24 C          64.7433   91.1365   13.9681 C.3     1  UNL1        0.0978
     25 C          65.3254   91.3943   15.3264 C.3     1  UNL1        0.0224
     26 C          66.2698   92.5414   15.5322 C.3     1  UNL1        0.0065
     27 C          66.6322   93.4306   14.3799 C.3     1  UNL1        0.0277
     28 C          66.0501   93.1729   13.0217 C.ar    1  UNL1       -0.0073
     29 C          66.4125   94.0621   11.8693 C.ar    1  UNL1       -0.0015
     30 C          65.8304   93.8043   10.5111 C.ar    1  UNL1        0.0203
     31 C          64.8860   92.6573   10.3052 C.ar    1  UNL1        0.0985
     32 N          64.5236   91.7680   11.4576 N.ar    1  UNL1       -0.2471
     33 C          65.1057   92.0258   12.8158 C.ar    1  UNL1        0.0695
@<TRIPOS>BOND
     1    18    19    1
     2    19    20    1
     3    19    12    1
     4    12    13    1
     5    13    14    1
     6    14    15    1
     7    15     1    1
     8     1     2   ar
     9     2     3   ar
    10     3     4   ar
    11     4     5   ar
    12     5     6   ar
    13     6     7    1
    14     7     8    1
    15     8    21    1
    16    21    22    1
    17    22    23    1
    18    24    22    1
    19    24    25    1
    20    25    26    1
    21    26    27    1
    22    27    28    1
    23    28    29   ar
    24    29    30   ar
    25    30    31   ar
    26    31    32   ar
    27    32    33   ar
    28     8     9    1
    29     9    10    1
    30    15    16    1
    31    16    17    1
    32    17    12    1
    33     6     1   ar
    34    33    24    1
    35    10     5    1
    36    33    28   ar
    37     9    11    1
@<TRIPOS>MOLECULE
*****
 33 37 0 0 0
SMALL
GASTEIGER

@<TRIPOS>ATOM
      1 C          63.5814   84.4765   12.3463 C.ar    1  UNL1        0.0436
      2 C          64.3091   83.1687   12.2468 C.ar    1  UNL1        0.0142
      3 C          64.4613   82.4945   10.9156 C.ar    1  UNL1        0.0010
      4 C          63.8856   83.1281    9.6838 C.ar    1  UNL1       -0.0032
      5 C          63.1579   84.4359    9.7833 C.ar    1  UNL1       -0.0091
      6 C          63.0057   85.1101   11.1145 C.ar    1  UNL1       -0.0101
      7 C          62.2779   86.4180   11.2141 C.3     1  UNL1        0.0444
      8 C          61.7023   87.0516    9.9823 C.3     1  UNL1        0.0749
      9 N          61.8545   86.3773    8.6510 N.3     1  UNL1       -0.2934
     10 C          62.5822   85.0695    8.5516 C.3     1  UNL1        0.0954
     11 H          62.3440   87.0336    8.0428 H       1  UNL1        0.1236
     12 C          63.1248   86.4993   16.3401 C.3     1  UNL1        0.0610
     13 C          64.0940   87.0410   15.3315 C.3     1  UNL1        0.0374
     14 C          64.2462   86.3667   14.0002 C.3     1  UNL1        0.0922
     15 N          63.4292   85.1508   13.6776 N.pl3   1  UNL1       -0.3077
     16 C          62.4600   84.6092   14.6862 C.3     1  UNL1        0.0922
     17 C          62.3078   85.2834   16.0174 C.3     1  UNL1        0.0374
     18 C          63.0408   88.6689   17.7668 C.3     1  UNL1        0.0896
     19 N          62.9726   87.1736   17.6713 N.3     1  UNL1       -0.2715
     20 C          62.7522   86.3524   18.9071 C.3     1  UNL1        0.0896
     21 C          60.9745   88.3594   10.0818 C.3     1  UNL1        0.0886
     22 N          61.2216   89.2683   11.2492 N.3     1  UNL1       -0.2667
     23 C          60.2892   89.2505   12.4241 C.3     1  UNL1        0.0899
     24 C          62.4011   90.1950   11.2417 C.3     1  UNL1        0.0978
     25 C          62.8288   90.8543    9.9640 C.3     1  UNL1        0.0224
     26 C          64.0083   91.7810    9.9565 C.3     1  UNL1        0.0065
     27 C          64.7600   92.0485   11.2267 C.3     1  UNL1        0.0277
     28 C          64.3323   91.3893   12.5044 C.ar    1  UNL1       -0.0073
     29 C          65.0840   91.6568   13.7746 C.ar    1  UNL1       -0.0015
     30 C          64.6562   90.9975   15.0523 C.ar    1  UNL1        0.0203
     31 C          63.4768   90.0708   15.0597 C.ar    1  UNL1        0.0985
     32 N          62.7251   89.8033   13.7896 N.ar    1  UNL1       -0.2471
     33 C          63.1528   90.4625   12.5119 C.ar    1  UNL1        0.0695
@<TRIPOS>BOND
     1    18    19    1
     2    19    20    1
     3    19    12    1
     4    12    13    1
     5    13    14    1
     6    14    15    1
     7    15     1    1
     8     1     2   ar
     9     2     3   ar
    10     3     4   ar
    11     4     5   ar
    12     5     6   ar
    13     6     7    1
    14     7     8    1
    15     8    21    1
    16    21    22    1
    17    22    23    1
    18    24    22    1
    19    24    25    1
    20    25    26    1
    21    26    27    1
    22    27    28    1
    23    28    29   ar
    24    29    30   ar
    25    30    31   ar
    26    31    32   ar
    27    32    33   ar
    28     8     9    1
    29     9    10    1
    30    15    16    1
    31    16    17    1
    32    17    12    1
    33     6     1   ar
    34    33    24    1
    35    10     5    1
    36    33    28   ar
    37     9    11    1
