@<TRIPOS>MOLECULE
*****
 49 55 0 0 0
SMALL
GASTEIGER

@<TRIPOS>ATOM
      1 C          59.5767   88.7074    7.5687 C.3     1  UNL1        0.1543
      2 N          60.6921   89.3801    8.3125 N.am    1  UNL1       -0.2822
      3 C          60.7041   89.3740    9.8124 C.2     1  UNL1        0.3043
      4 O          59.6008   88.6951   10.5685 O.2     1  UNL1       -0.2526
      5 N          61.8196   90.0468   10.5562 N.am    1  UNL1       -0.2641
      6 C          61.8317   90.0407   12.0561 C.3     1  UNL1        0.0966
      7 C          62.9471   90.7135   12.7998 C.3     1  UNL1        0.0415
      8 C          64.0504   91.3924   12.0437 C.3     1  UNL1        0.0806
      9 C          64.0383   91.3985   10.5438 C.3     1  UNL1        0.0415
     10 C          62.9229   90.7257    9.8000 C.3     1  UNL1        0.0966
     11 H          61.4162   89.8257    7.8162 H       1  UNL1        0.1514
     12 N          65.1658   92.0652   12.7875 N.am    1  UNL1       -0.2613
     13 C          65.7396   91.4264   14.0173 C.3     1  UNL1        0.1228
     14 C          66.8551   92.0992   14.7612 C.ar    1  UNL1        0.0112
     15 C          67.4289   91.4603   15.9910 C.ar    1  UNL1       -0.0014
     16 C          68.5443   92.1332   16.7348 C.ar    1  UNL1       -0.0002
     17 C          69.0858   93.4448   16.2487 C.ar    1  UNL1        0.0013
     18 C          68.5120   94.0836   15.0188 C.ar    1  UNL1        0.0144
     19 C          67.3967   93.4108   14.2751 C.ar    1  UNL1        0.0492
     20 N          66.8228   94.0496   13.0451 N.am    1  UNL1       -0.2684
     21 C          65.7074   93.3768   12.3014 C.2     1  UNL1        0.3079
     22 O          65.1335   94.0157   11.0714 O.2     1  UNL1       -0.2522
     23 H          67.1782   94.9105   12.7261 H       1  UNL1        0.1564
     24 C          58.6552   89.5172    6.7055 C.2     1  UNL1        0.2439
     25 O          57.1700   89.4066    6.8840 O.2     1  UNL1       -0.2731
     26 N          59.2189   90.4376    5.6638 N.am    1  UNL1       -0.2781
     27 C          60.7041   90.5482    5.4854 C.3     1  UNL1        0.0948
     28 C          61.2679   91.4686    4.4437 C.3     1  UNL1        0.0375
     29 C          60.3464   92.2784    3.5805 C.3     1  UNL1        0.0609
     30 C          58.8611   92.1678    3.7590 C.3     1  UNL1        0.0375
     31 C          58.2974   91.2474    4.8007 C.3     1  UNL1        0.0948
     32 N          60.9101   93.1988    2.5389 N.3     1  UNL1       -0.2738
     33 C          62.2042   92.8603    1.8602 C.3     1  UNL1        0.0720
     34 C          62.7680   93.7807    0.8185 C.3     1  UNL1        0.0174
     35 C          62.0376   95.0396    0.4555 C.3     1  UNL1        0.0029
     36 C          60.7434   95.3780    1.1342 C.3     1  UNL1        0.0174
     37 C          60.1797   94.4576    2.1759 C.3     1  UNL1        0.0720
     38 C          59.3827   87.2247    7.6881 C.3     1  UNL1        0.0553
     39 O          64.3993   83.3444   12.3142 O.2     1  UNL1       -0.2744
     40 C          63.5942   83.9719   11.2149 C.2     1  UNL1        0.2306
     41 C          62.4082   84.8725   11.3945 C.3     1  UNL1        0.1129
     42 C          61.9148   85.2660   10.0337 C.ar    1  UNL1        0.0001
     43 C          60.7771   86.1380    9.5920 C.ar    1  UNL1       -0.0068
     44 C          60.5205   86.3527    8.1298 C.ar    1  UNL1       -0.0202
     45 C          61.4016   85.6953    7.1092 C.ar    1  UNL1       -0.0029
     46 C          62.5393   84.8232    7.5509 C.ar    1  UNL1        0.0140
     47 C          62.7960   84.6086    9.0132 C.ar    1  UNL1        0.0467
     48 N          63.8339   83.8088    9.7432 N.am    1  UNL1       -0.2839
     49 H          64.5471   83.2712    9.3291 H       1  UNL1        0.1549
@<TRIPOS>BOND
     1    39    40    2
     2    40    41    1
     3    41    42    1
     4    42    43   ar
     5    43    44   ar
     6    44    38    1
     7     1    38    1
     8     1     2    1
     9     2     3   am
    10     3     4    2
    11     3     5   am
    12     5     6    1
    13     6     7    1
    14     7     8    1
    15     8    12    1
    16    12    13    1
    17    13    14    1
    18    14    15   ar
    19    15    16   ar
    20    16    17   ar
    21    17    18   ar
    22    18    19   ar
    23    19    20    1
    24    20    21   am
    25    21    22    2
    26     8     9    1
    27     9    10    1
    28     1    24    1
    29    24    25    2
    30    24    26   am
    31    26    27    1
    32    27    28    1
    33    28    29    1
    34    29    32    1
    35    32    33    1
    36    33    34    1
    37    34    35    1
    38    35    36    1
    39    36    37    1
    40    29    30    1
    41    30    31    1
    42    44    45   ar
    43    45    46   ar
    44    46    47   ar
    45    47    48    1
    46    48    40   am
    47    47    42   ar
    48    10     5    1
    49    31    26    1
    50    21    12   am
    51    37    32    1
    52    19    14   ar
    53     2    11    1
    54    20    23    1
    55    48    49    1
@<TRIPOS>MOLECULE
*****
 49 55 0 0 0
SMALL
GASTEIGER

@<TRIPOS>ATOM
      1 C          60.3660   88.2412    8.6202 C.3     1  UNL1        0.1543
      2 N          60.5831   89.1567    7.4520 N.am    1  UNL1       -0.2822
      3 C          59.4063   89.7230    6.7142 C.2     1  UNL1        0.3043
      4 O          58.0124   89.3738    7.1446 O.2     1  UNL1       -0.2526
      5 N          59.6233   90.6386    5.5460 N.am    1  UNL1       -0.2641
      6 C          58.4465   91.2049    4.8082 C.3     1  UNL1        0.0966
      7 C          58.6635   92.1204    3.6401 C.3     1  UNL1        0.0415
      8 C          60.0574   92.4697    3.2097 C.3     1  UNL1        0.0806
      9 C          61.2342   91.9034    3.9475 C.3     1  UNL1        0.0415
     10 C          61.0171   90.9879    5.1157 C.3     1  UNL1        0.0966
     11 H          61.4979   89.3860    7.1696 H       1  UNL1        0.1514
     12 N          60.2744   93.3853    2.0415 N.am    1  UNL1       -0.2613
     13 C          60.5663   92.8146    0.6854 C.3     1  UNL1        0.1228
     14 C          60.7833   93.7302   -0.4828 C.ar    1  UNL1        0.0112
     15 C          61.0753   93.1595   -1.8389 C.ar    1  UNL1       -0.0014
     16 C          61.2923   94.0751   -3.0070 C.ar    1  UNL1       -0.0002
     17 C          61.2173   95.5614   -2.8191 C.ar    1  UNL1        0.0013
     18 C          60.9253   96.1321   -1.4630 C.ar    1  UNL1        0.0144
     19 C          60.7084   95.2165   -0.2949 C.ar    1  UNL1        0.0492
     20 N          60.4164   95.7872    1.0613 N.am    1  UNL1       -0.2684
     21 C          60.1994   94.8716    2.2294 C.2     1  UNL1        0.3079
     22 O          59.9074   95.4423    3.5856 O.2     1  UNL1       -0.2522
     23 H          60.3672   96.7627    1.1847 H       1  UNL1        0.1564
     24 C          60.1683   88.8114    9.9934 C.2     1  UNL1        0.2439
     25 O          58.8547   88.6366   10.6961 O.2     1  UNL1       -0.2731
     26 N          61.2843   89.5565   10.6640 N.am    1  UNL1       -0.2781
     27 C          62.5979   89.7313    9.9612 C.3     1  UNL1        0.0948
     28 C          63.7139   90.4764   10.6318 C.3     1  UNL1        0.0375
     29 C          63.5162   91.0466   12.0050 C.3     1  UNL1        0.0609
     30 C          62.2025   90.8718   12.7077 C.3     1  UNL1        0.0375
     31 C          61.0866   90.1267   12.0372 C.3     1  UNL1        0.0948
     32 N          64.6321   91.7916   12.6755 N.3     1  UNL1       -0.2738
     33 C          65.3105   92.9250   11.9648 C.3     1  UNL1        0.0720
     34 C          66.4265   93.6701   12.6353 C.3     1  UNL1        0.0174
     35 C          66.8640   93.2818   14.0166 C.3     1  UNL1        0.0029
     36 C          66.1854   92.1484   14.7273 C.3     1  UNL1        0.0174
     37 C          65.0696   91.4033   14.0568 C.3     1  UNL1        0.0720
     38 C          60.3467   86.7554    8.4152 C.3     1  UNL1        0.0553
     39 O          64.5063   82.9635   13.8872 O.2     1  UNL1       -0.2744
     40 C          63.9002   83.5724   12.6575 C.2     1  UNL1        0.2306
     41 C          62.6975   84.4677   12.6181 C.3     1  UNL1        0.1129
     42 C          62.4444   84.8414   11.1876 C.ar    1  UNL1        0.0001
     43 C          61.3964   85.7009   10.5450 C.ar    1  UNL1       -0.0068
     44 C          61.3948   85.8959    9.0577 C.ar    1  UNL1       -0.0202
     45 C          62.4412   85.2314    8.2130 C.ar    1  UNL1       -0.0029
     46 C          63.4893   84.3720    8.8556 C.ar    1  UNL1        0.0140
     47 C          63.4908   84.1770   10.3429 C.ar    1  UNL1        0.0467
     48 N          64.3906   83.3926   11.2513 N.am    1  UNL1       -0.2839
     49 H          65.1667   82.8544   10.9734 H       1  UNL1        0.1549
@<TRIPOS>BOND
     1    39    40    2
     2    40    41    1
     3    41    42    1
     4    42    43   ar
     5    43    44   ar
     6    44    38    1
     7     1    38    1
     8     1     2    1
     9     2     3   am
    10     3     4    2
    11     3     5   am
    12     5     6    1
    13     6     7    1
    14     7     8    1
    15     8    12    1
    16    12    13    1
    17    13    14    1
    18    14    15   ar
    19    15    16   ar
    20    16    17   ar
    21    17    18   ar
    22    18    19   ar
    23    19    20    1
    24    20    21   am
    25    21    22    2
    26     8     9    1
    27     9    10    1
    28     1    24    1
    29    24    25    2
    30    24    26   am
    31    26    27    1
    32    27    28    1
    33    28    29    1
    34    29    32    1
    35    32    33    1
    36    33    34    1
    37    34    35    1
    38    35    36    1
    39    36    37    1
    40    29    30    1
    41    30    31    1
    42    44    45   ar
    43    45    46   ar
    44    46    47   ar
    45    47    48    1
    46    48    40   am
    47    47    42   ar
    48    10     5    1
    49    31    26    1
    50    21    12   am
    51    37    32    1
    52    19    14   ar
    53     2    11    1
    54    20    23    1
    55    48    49    1
@<TRIPOS>MOLECULE
*****
 49 55 0 0 0
SMALL
GASTEIGER

@<TRIPOS>ATOM
      1 C          60.0696   89.2717    7.7162 C.3     1  UNL1        0.1543
      2 N          60.6621   89.9389    6.5105 N.am    1  UNL1       -0.2822
      3 C          59.8050   90.8045    5.6352 C.2     1  UNL1        0.3043
      4 O          58.3554   91.0029    5.9657 O.2     1  UNL1       -0.2526
      5 N          60.3976   91.4717    4.4295 N.am    1  UNL1       -0.2641
      6 C          59.5405   92.3373    3.5543 C.3     1  UNL1        0.0966
      7 C          60.1330   93.0045    2.3486 C.3     1  UNL1        0.0415
      8 C          61.5826   92.8061    2.0181 C.3     1  UNL1        0.0806
      9 C          62.4397   91.9405    2.8933 C.3     1  UNL1        0.0415
     10 C          61.8472   91.2733    4.0990 C.3     1  UNL1        0.0966
     11 H          61.6136   89.8086    6.2936 H       1  UNL1        0.1514
     12 N          62.1751   93.4733    0.8123 N.am    1  UNL1       -0.2613
     13 C          63.3522   94.3905    0.9652 C.3     1  UNL1        0.1228
     14 C          63.9447   95.0577   -0.2406 C.ar    1  UNL1        0.0112
     15 C          65.1217   95.9748   -0.0877 C.ar    1  UNL1       -0.0014
     16 C          65.7141   96.6420   -1.2934 C.ar    1  UNL1       -0.0002
     17 C          65.1296   96.3920   -2.6520 C.ar    1  UNL1        0.0013
     18 C          63.9526   95.4749   -2.8049 C.ar    1  UNL1        0.0144
     19 C          63.3601   94.8077   -1.5992 C.ar    1  UNL1        0.0492
     20 N          62.1830   93.8905   -1.7520 N.am    1  UNL1       -0.2684
     21 C          61.5906   93.2233   -0.5463 C.2     1  UNL1        0.3079
     22 O          60.4135   92.3061   -0.6991 O.2     1  UNL1       -0.2522
     23 H          61.7994   93.7264   -2.6437 H       1  UNL1        0.1564
     24 C          59.9900   87.7753    7.7821 C.2     1  UNL1        0.2439
     25 O          59.1236   87.0269    6.8129 O.2     1  UNL1       -0.2731
     26 N          60.7768   87.0272    8.8172 N.am    1  UNL1       -0.2781
     27 C          61.6432   87.7756    9.7863 C.3     1  UNL1        0.0948
     28 C          62.4300   87.0275   10.8214 C.3     1  UNL1        0.0375
     29 C          62.3504   85.5311   10.8873 C.3     1  UNL1        0.0609
     30 C          61.4840   84.7827    9.9181 C.3     1  UNL1        0.0375
     31 C          60.6972   85.5308    8.8831 C.3     1  UNL1        0.0948
     32 N          63.1372   84.7830   11.9224 N.3     1  UNL1       -0.2738
     33 C          63.5320   83.3567   11.6782 C.3     1  UNL1        0.0720
     34 C          64.3188   82.6086   12.7133 C.3     1  UNL1        0.0174
     35 C          64.7108   83.2868   13.9925 C.3     1  UNL1        0.0029
     36 C          64.3160   84.7133   14.2366 C.3     1  UNL1        0.0174
     37 C          63.5292   85.4613   13.2015 C.3     1  UNL1        0.0720
     38 C          59.5566   90.1010    8.8560 C.3     1  UNL1        0.0553
     39 O          65.4074   91.4320   13.9177 O.2     1  UNL1       -0.2744
     40 C          64.1459   91.0869   13.1831 C.2     1  UNL1        0.2306
     41 C          63.9135   91.2413   11.7093 C.3     1  UNL1        0.1129
     42 C          62.5194   90.7767   11.4086 C.ar    1  UNL1        0.0001
     43 C          61.7415   90.6986   10.1284 C.ar    1  UNL1       -0.0068
     44 C          60.3345   90.1790   10.1362 C.ar    1  UNL1       -0.0202
     45 C          59.7051   89.7374   11.4243 C.ar    1  UNL1       -0.0029
     46 C          60.4830   89.8155   12.7045 C.ar    1  UNL1        0.0140
     47 C          61.8901   90.3351   12.6966 C.ar    1  UNL1        0.0467
     48 N          62.8953   90.5268   13.7933 N.am    1  UNL1       -0.2839
     49 H          62.7583   90.3212   14.7463 H       1  UNL1        0.1549
@<TRIPOS>BOND
     1    39    40    2
     2    40    41    1
     3    41    42    1
     4    42    43   ar
     5    43    44   ar
     6    44    38    1
     7     1    38    1
     8     1     2    1
     9     2     3   am
    10     3     4    2
    11     3     5   am
    12     5     6    1
    13     6     7    1
    14     7     8    1
    15     8    12    1
    16    12    13    1
    17    13    14    1
    18    14    15   ar
    19    15    16   ar
    20    16    17   ar
    21    17    18   ar
    22    18    19   ar
    23    19    20    1
    24    20    21   am
    25    21    22    2
    26     8     9    1
    27     9    10    1
    28     1    24    1
    29    24    25    2
    30    24    26   am
    31    26    27    1
    32    27    28    1
    33    28    29    1
    34    29    32    1
    35    32    33    1
    36    33    34    1
    37    34    35    1
    38    35    36    1
    39    36    37    1
    40    29    30    1
    41    30    31    1
    42    44    45   ar
    43    45    46   ar
    44    46    47   ar
    45    47    48    1
    46    48    40   am
    47    47    42   ar
    48    10     5    1
    49    31    26    1
    50    21    12   am
    51    37    32    1
    52    19    14   ar
    53     2    11    1
    54    20    23    1
    55    48    49    1
@<TRIPOS>MOLECULE
*****
 49 55 0 0 0
SMALL
GASTEIGER

@<TRIPOS>ATOM
      1 C          60.5135   89.2448    8.3720 C.3     1  UNL1        0.1543
      2 N          60.7954   90.0078    7.1117 N.am    1  UNL1       -0.2822
      3 C          59.6606   90.4988    6.2625 C.2     1  UNL1        0.3043
      4 O          58.2439   90.2266    6.6736 O.2     1  UNL1       -0.2526
      5 N          59.9424   91.2619    5.0022 N.am    1  UNL1       -0.2641
      6 C          58.8076   91.7528    4.1531 C.3     1  UNL1        0.0966
      7 C          59.0895   92.5158    2.8928 C.3     1  UNL1        0.0415
      8 C          60.5062   92.7880    2.4818 C.3     1  UNL1        0.0806
      9 C          61.6410   92.2970    3.3309 C.3     1  UNL1        0.0415
     10 C          61.3591   91.5340    4.5912 C.3     1  UNL1        0.0966
     11 H          61.7252   90.1864    6.8419 H       1  UNL1        0.1514
     12 N          60.7880   93.5511    1.2214 N.am    1  UNL1       -0.2613
     13 C          61.3462   92.8412    0.0238 C.3     1  UNL1        0.1228
     14 C          61.6281   93.6043   -1.2365 C.ar    1  UNL1        0.0112
     15 C          62.1863   92.8944   -2.4342 C.ar    1  UNL1       -0.0014
     16 C          62.4681   93.6575   -3.6944 C.ar    1  UNL1       -0.0002
     17 C          62.1917   95.1305   -3.7570 C.ar    1  UNL1        0.0013
     18 C          61.6334   95.8404   -2.5593 C.ar    1  UNL1        0.0144
     19 C          61.3516   95.0773   -1.2991 C.ar    1  UNL1        0.0492
     20 N          60.7934   95.7871   -0.1014 N.am    1  UNL1       -0.2684
     21 C          60.5115   95.0240    1.1588 C.2     1  UNL1        0.3079
     22 O          59.9533   95.7339    2.3566 O.2     1  UNL1       -0.2522
     23 H          60.6119   96.7539   -0.1424 H       1  UNL1        0.1564
     24 C          60.3902   87.7504    8.3322 C.2     1  UNL1        0.2439
     25 O          59.5727   87.0935    7.2599 O.2     1  UNL1       -0.2731
     26 N          61.0846   86.9128    9.3650 N.am    1  UNL1       -0.2781
     27 C          61.9021   87.5697   10.4374 C.3     1  UNL1        0.0948
     28 C          62.5965   86.7322   11.4702 C.3     1  UNL1        0.0375
     29 C          62.4732   85.2378   11.4304 C.3     1  UNL1        0.0609
     30 C          61.6556   84.5809   10.3580 C.3     1  UNL1        0.0375
     31 C          60.9613   85.4184    9.3253 C.3     1  UNL1        0.0948
     32 N          63.1675   84.4003   12.4631 N.3     1  UNL1       -0.2738
     33 C          63.1918   82.9069   12.3249 C.3     1  UNL1        0.0720
     34 C          63.8861   82.0693   13.3576 C.3     1  UNL1        0.0174
     35 C          64.5561   82.7251   14.5285 C.3     1  UNL1        0.0029
     36 C          64.5318   84.2186   14.6667 C.3     1  UNL1        0.0174
     37 C          63.8375   85.0561   13.6340 C.3     1  UNL1        0.0720
     38 C          60.3549   89.9761    9.6720 C.3     1  UNL1        0.0553
     39 O          65.3685   91.3308   15.5586 O.2     1  UNL1       -0.2744
     40 C          64.6079   91.2050   14.2718 C.2     1  UNL1        0.2306
     41 C          63.2655   90.5579   14.1007 C.3     1  UNL1        0.1129
     42 C          62.8842   90.6572   12.6534 C.ar    1  UNL1        0.0001
     43 C          61.6722   90.1940   11.9007 C.ar    1  UNL1       -0.0068
     44 C          61.5669   90.4393   10.4247 C.ar    1  UNL1       -0.0202
     45 C          62.6736   91.1478    9.7012 C.ar    1  UNL1       -0.0029
     46 C          63.8856   91.6109   10.4539 C.ar    1  UNL1        0.0140
     47 C          63.9909   91.3656   11.9300 C.ar    1  UNL1        0.0467
     48 N          65.0562   91.7042   12.9302 N.am    1  UNL1       -0.2839
     49 H          65.9013   92.1720   12.7396 H       1  UNL1        0.1549
@<TRIPOS>BOND
     1    39    40    2
     2    40    41    1
     3    41    42    1
     4    42    43   ar
     5    43    44   ar
     6    44    38    1
     7     1    38    1
     8     1     2    1
     9     2     3   am
    10     3     4    2
    11     3     5   am
    12     5     6    1
    13     6     7    1
    14     7     8    1
    15     8    12    1
    16    12    13    1
    17    13    14    1
    18    14    15   ar
    19    15    16   ar
    20    16    17   ar
    21    17    18   ar
    22    18    19   ar
    23    19    20    1
    24    20    21   am
    25    21    22    2
    26     8     9    1
    27     9    10    1
    28     1    24    1
    29    24    25    2
    30    24    26   am
    31    26    27    1
    32    27    28    1
    33    28    29    1
    34    29    32    1
    35    32    33    1
    36    33    34    1
    37    34    35    1
    38    35    36    1
    39    36    37    1
    40    29    30    1
    41    30    31    1
    42    44    45   ar
    43    45    46   ar
    44    46    47   ar
    45    47    48    1
    46    48    40   am
    47    47    42   ar
    48    10     5    1
    49    31    26    1
    50    21    12   am
    51    37    32    1
    52    19    14   ar
    53     2    11    1
    54    20    23    1
    55    48    49    1
