@<TRIPOS>MOLECULE
*****
 27 29 0 0 0
SMALL
GASTEIGER

@<TRIPOS>ATOM
      1 C          63.8807   90.8701   14.7112 C.ar    1  UNL1        0.1357
      2 N          64.7487   91.4989   15.7605 N.ar    1  UNL1       -0.1992
      3 C          65.7977   92.4964   15.3671 C.ar    1  UNL1        0.2148
      4 N          66.6658   93.1252   16.4165 N.pl3   1  UNL1       -0.3274
      5 N          65.9787   92.8650   13.9245 N.ar    1  UNL1       -0.2138
      6 C          65.1107   92.2361   12.8751 C.ar    1  UNL1        0.0898
      7 C          65.2917   92.6047   11.4324 C.ar    1  UNL1        0.0195
      8 C          64.4237   91.9759   10.3831 C.ar    1  UNL1        0.0047
      9 C          63.3746   90.9785   10.7764 C.ar    1  UNL1        0.0371
     10 C          63.1936   90.6099   12.2191 C.ar    1  UNL1        0.1432
     11 C          64.0616   91.2387   13.2684 C.ar    1  UNL1        0.0831
     12 H          66.5469   92.8832   17.3634 H       1  UNL1        0.1452
     13 H          67.3543   93.7798   16.1584 H       1  UNL1        0.1452
     14 N          62.8316   89.8727   15.1045 N.pl3   1  UNL1       -0.3179
     15 H          62.0216   89.7677   14.5550 H       1  UNL1        0.1482
     16 C          63.0168   89.0354   16.3352 C.3     1  UNL1        0.0882
     17 C          63.5348   87.6326   16.2169 C.3     1  UNL1        0.0212
     18 C          64.7098   85.7825   14.8217 C.3     1  UNL1        0.0001
     19 C          64.2874   87.2120   14.9894 C.3     1  UNL1        0.0017
     20 O          62.1446   89.6125   12.6125 O.3     1  UNL1       -0.4688
     21 C          61.3429   88.9113   11.5563 C.3     1  UNL1        0.2508
     22 C          61.8146   87.5987   11.0045 C.ar    1  UNL1        0.1026
     23 C          61.9329   87.4077    9.5213 C.ar    1  UNL1        0.0185
     24 C          62.4046   86.0951    8.9695 C.ar    1  UNL1        0.0029
     25 C          62.7582   84.9735    9.9008 C.ar    1  UNL1        0.0207
     26 C          62.6400   85.1646   11.3838 C.ar    1  UNL1        0.0986
     27 N          62.1682   86.4772   11.9357 N.ar    1  UNL1       -0.2445
@<TRIPOS>BOND
     1    18    19    1
     2    19    17    1
     3    17    16    1
     4    16    14    1
     5    14     1    1
     6     1     2   ar
     7     2     3   ar
     8     3     4    1
     9     3     5   ar
    10     5     6   ar
    11     6     7   ar
    12     7     8   ar
    13     8     9   ar
    14     9    10   ar
    15    10    20    1
    16    20    21    1
    17    21    22    1
    18    22    23   ar
    19    23    24   ar
    20    24    25   ar
    21    25    26   ar
    22    26    27   ar
    23    10    11   ar
    24    11     1   ar
    25    11     6   ar
    26    27    22   ar
    27    14    15    1
    28     4    12    1
    29     4    13    1
@<TRIPOS>MOLECULE
*****
 27 29 0 0 0
SMALL
GASTEIGER

@<TRIPOS>ATOM
      1 C          64.0019   90.8792   14.6420 C.ar    1  UNL1        0.1357
      2 N          64.8758   91.5179   15.6804 N.ar    1  UNL1       -0.1992
      3 C          65.8883   92.5487   15.2775 C.ar    1  UNL1        0.2148
      4 N          66.7623   93.1875   16.3159 N.pl3   1  UNL1       -0.3274
      5 N          66.0268   92.9408   13.8363 N.ar    1  UNL1       -0.2138
      6 C          65.1528   92.3021   12.7979 C.ar    1  UNL1        0.0898
      7 C          65.2914   92.6942   11.3567 C.ar    1  UNL1        0.0195
      8 C          64.4174   92.0554   10.3184 C.ar    1  UNL1        0.0047
      9 C          63.4049   91.0246   10.7213 C.ar    1  UNL1        0.0371
     10 C          63.2664   90.6325   12.1625 C.ar    1  UNL1        0.1432
     11 C          64.1404   91.2713   13.2008 C.ar    1  UNL1        0.0831
     12 H          66.6714   92.9301   17.2618 H       1  UNL1        0.1452
     13 H          67.4269   93.8640   16.0515 H       1  UNL1        0.1452
     14 N          62.9894   89.8484   15.0449 N.pl3   1  UNL1       -0.3179
     15 H          62.0365   89.9883   14.8409 H       1  UNL1        0.1482
     16 C          63.4287   88.6044   15.7586 C.3     1  UNL1        0.0882
     17 C          62.9971   88.3597   17.1741 C.3     1  UNL1        0.0212
     18 C          63.0786   85.7967   16.7564 C.3     1  UNL1        0.0001
     19 C          62.8033   86.9563   17.6672 C.3     1  UNL1        0.0017
     20 O          62.2539   89.6017   12.5653 O.3     1  UNL1       -0.4688
     21 C          60.9539   89.4976   11.8243 C.3     1  UNL1        0.2508
     22 C          60.7938   88.4852   10.7292 C.ar    1  UNL1        0.1026
     23 C          61.3242   87.0939   10.9106 C.ar    1  UNL1        0.0185
     24 C          61.1641   86.0814    9.8155 C.ar    1  UNL1        0.0029
     25 C          60.4736   86.4603    8.5389 C.ar    1  UNL1        0.0207
     26 C          59.9433   87.8516    8.3575 C.ar    1  UNL1        0.0986
     27 N          60.1033   88.8641    9.4526 N.ar    1  UNL1       -0.2445
@<TRIPOS>BOND
     1    18    19    1
     2    19    17    1
     3    17    16    1
     4    16    14    1
     5    14     1    1
     6     1     2   ar
     7     2     3   ar
     8     3     4    1
     9     3     5   ar
    10     5     6   ar
    11     6     7   ar
    12     7     8   ar
    13     8     9   ar
    14     9    10   ar
    15    10    20    1
    16    20    21    1
    17    21    22    1
    18    22    23   ar
    19    23    24   ar
    20    24    25   ar
    21    25    26   ar
    22    26    27   ar
    23    10    11   ar
    24    11     1   ar
    25    11     6   ar
    26    27    22   ar
    27    14    15    1
    28     4    12    1
    29     4    13    1
@<TRIPOS>MOLECULE
*****
 27 29 0 0 0
SMALL
GASTEIGER

@<TRIPOS>ATOM
      1 C          64.5949   91.7771   12.4101 C.ar    1  UNL1        0.1357
      2 N          65.1435   92.1282   11.0589 N.ar    1  UNL1       -0.1992
      3 C          66.4597   92.8387   10.9453 C.ar    1  UNL1        0.2148
      4 N          67.0082   93.1898    9.5940 N.pl3   1  UNL1       -0.3274
      5 N          67.2272   93.1982   12.1829 N.ar    1  UNL1       -0.2138
      6 C          66.6786   92.8471   13.5341 C.ar    1  UNL1        0.0898
      7 C          67.4461   93.2066   14.7717 C.ar    1  UNL1        0.0195
      8 C          66.8975   92.8556   16.1229 C.ar    1  UNL1        0.0047
      9 C          65.5814   92.1450   16.2365 C.ar    1  UNL1        0.0371
     10 C          64.8139   91.7856   14.9990 C.ar    1  UNL1        0.1432
     11 C          65.3625   92.1366   13.6478 C.ar    1  UNL1        0.0831
     12 H          66.5045   92.9538    8.7817 H       1  UNL1        0.1452
     13 H          67.8721   93.6561    9.5194 H       1  UNL1        0.1452
     14 N          63.2788   91.0666   12.5237 N.pl3   1  UNL1       -0.3179
     15 H          62.9641   90.7507   13.4015 H       1  UNL1        0.1482
     16 C          62.4421   90.8373   11.3001 C.3     1  UNL1        0.0882
     17 C          62.2533   89.4468   10.7703 C.3     1  UNL1        0.0212
     18 C          62.2732   86.8815   11.1817 C.3     1  UNL1        0.0001
     19 C          62.6750   88.2665   11.5945 C.3     1  UNL1        0.0017
     20 O          63.4977   91.0750   15.1126 O.3     1  UNL1       -0.4688
     21 C          63.2539   90.1248   16.2472 C.3     1  UNL1        0.2508
     22 C          63.4865   88.6550   16.0578 C.ar    1  UNL1        0.1026
     23 C          64.2748   88.1662   14.8789 C.ar    1  UNL1        0.0185
     24 C          64.5073   86.6965   14.6895 C.ar    1  UNL1        0.0029
     25 C          63.9515   85.7156   15.6790 C.ar    1  UNL1        0.0207
     26 C          63.1632   86.2044   16.8578 C.ar    1  UNL1        0.0986
     27 N          62.9307   87.6742   17.0472 N.ar    1  UNL1       -0.2445
@<TRIPOS>BOND
     1    18    19    1
     2    19    17    1
     3    17    16    1
     4    16    14    1
     5    14     1    1
     6     1     2   ar
     7     2     3   ar
     8     3     4    1
     9     3     5   ar
    10     5     6   ar
    11     6     7   ar
    12     7     8   ar
    13     8     9   ar
    14     9    10   ar
    15    10    20    1
    16    20    21    1
    17    21    22    1
    18    22    23   ar
    19    23    24   ar
    20    24    25   ar
    21    25    26   ar
    22    26    27   ar
    23    10    11   ar
    24    11     1   ar
    25    11     6   ar
    26    27    22   ar
    27    14    15    1
    28     4    12    1
    29     4    13    1
@<TRIPOS>MOLECULE
*****
 27 29 0 0 0
SMALL
GASTEIGER

@<TRIPOS>ATOM
      1 C          64.0151   88.9386   13.8336 C.ar    1  UNL1        0.1357
      2 N          64.7793   89.7753   14.8164 N.ar    1  UNL1       -0.1992
      3 C          65.0805   91.2113   14.5044 C.ar    1  UNL1        0.2148
      4 N          65.8447   92.0480   15.4872 N.pl3   1  UNL1       -0.3274
      5 N          64.6174   91.8105   13.2096 N.ar    1  UNL1       -0.2138
      6 C          63.8531   90.9738   12.2268 C.ar    1  UNL1        0.0898
      7 C          63.3901   91.5731   10.9320 C.ar    1  UNL1        0.0195
      8 C          62.6258   90.7364    9.9493 C.ar    1  UNL1        0.0047
      9 C          62.3247   89.3004   10.2613 C.ar    1  UNL1        0.0371
     10 C          62.7878   88.7012   11.5560 C.ar    1  UNL1        0.1432
     11 C          63.5520   89.5379   12.5388 C.ar    1  UNL1        0.0831
     12 H          66.1486   91.6547   16.3370 H       1  UNL1        0.1452
     13 H          66.0424   92.9905   15.2824 H       1  UNL1        0.1452
     14 N          63.7140   87.5027   14.1456 N.pl3   1  UNL1       -0.3179
     15 H          62.8603   87.1051   13.8583 H       1  UNL1        0.1482
     16 C          64.7133   86.6725   14.8952 C.3     1  UNL1        0.0882
     17 C          64.7817   85.1918   14.6651 C.3     1  UNL1        0.0212
     18 C          62.7291   84.0006   13.6078 C.3     1  UNL1        0.0001
     19 C          64.1034   84.5862   13.4721 C.3     1  UNL1        0.0017
     20 O          62.4866   87.2652   11.8680 O.3     1  UNL1       -0.4688
     21 C          61.3296   86.5800   11.2034 C.3     1  UNL1        0.2508
     22 C          61.4599   86.0860    9.7931 C.ar    1  UNL1        0.1026
     23 C          62.7379   85.4460    9.3377 C.ar    1  UNL1        0.0185
     24 C          62.8682   84.9520    7.9273 C.ar    1  UNL1        0.0029
     25 C          61.7206   85.0981    6.9724 C.ar    1  UNL1        0.0207
     26 C          60.4428   85.7381    7.4279 C.ar    1  UNL1        0.0986
     27 N          60.3124   86.2321    8.8382 N.ar    1  UNL1       -0.2445
@<TRIPOS>BOND
     1    18    19    1
     2    19    17    1
     3    17    16    1
     4    16    14    1
     5    14     1    1
     6     1     2   ar
     7     2     3   ar
     8     3     4    1
     9     3     5   ar
    10     5     6   ar
    11     6     7   ar
    12     7     8   ar
    13     8     9   ar
    14     9    10   ar
    15    10    20    1
    16    20    21    1
    17    21    22    1
    18    22    23   ar
    19    23    24   ar
    20    24    25   ar
    21    25    26   ar
    22    26    27   ar
    23    10    11   ar
    24    11     1   ar
    25    11     6   ar
    26    27    22   ar
    27    14    15    1
    28     4    12    1
    29     4    13    1
@<TRIPOS>MOLECULE
*****
 27 29 0 0 0
SMALL
GASTEIGER

@<TRIPOS>ATOM
      1 C          64.0019   88.8074   13.7599 C.ar    1  UNL1        0.1357
      2 N          64.7720   89.7074   14.6801 N.ar    1  UNL1       -0.1992
      3 C          64.9619   91.1534   14.3295 C.ar    1  UNL1        0.2148
      4 N          65.7320   92.0534   15.2499 N.pl3   1  UNL1       -0.3274
      5 N          64.3817   91.6995   13.0587 N.ar    1  UNL1       -0.2138
      6 C          63.6116   90.7995   12.1383 C.ar    1  UNL1        0.0898
      7 C          63.0314   91.3455   10.8674 C.ar    1  UNL1        0.0195
      8 C          62.2613   90.4455    9.9472 C.ar    1  UNL1        0.0047
      9 C          62.0714   88.9995   10.2978 C.ar    1  UNL1        0.0371
     10 C          62.6516   88.4534   11.5686 C.ar    1  UNL1        0.1432
     11 C          63.4217   89.3534   12.4889 C.ar    1  UNL1        0.0831
     12 H          66.1128   91.6950   16.0840 H       1  UNL1        0.1452
     13 H          65.8567   93.0025   15.0198 H       1  UNL1        0.1452
     14 N          63.8120   87.3613   14.1104 N.pl3   1  UNL1       -0.3179
     15 H          63.3649   86.7556   13.4761 H       1  UNL1        0.1482
     16 C          64.3034   86.8382   15.4275 C.3     1  UNL1        0.0882
     17 C          63.6652   85.6258   16.0382 C.3     1  UNL1        0.0212
     18 C          62.7073   86.7804   18.1593 C.3     1  UNL1        0.0001
     19 C          62.5662   85.7843   17.0467 C.3     1  UNL1        0.0017
     20 O          62.4617   87.0074   11.9192 O.3     1  UNL1       -0.4688
     21 C          62.4345   85.9703   10.8359 C.3     1  UNL1        0.2508
     22 C          62.8355   84.5573   11.1401 C.ar    1  UNL1        0.1026
     23 C          63.5565   83.7433   10.1067 C.ar    1  UNL1        0.0185
     24 C          63.9575   82.3302   10.4109 C.ar    1  UNL1        0.0029
     25 C          63.6375   81.7312   11.7484 C.ar    1  UNL1        0.0207
     26 C          62.9165   82.5452   12.7817 C.ar    1  UNL1        0.0986
     27 N          62.5156   83.9582   12.4775 N.ar    1  UNL1       -0.2445
@<TRIPOS>BOND
     1    18    19    1
     2    19    17    1
     3    17    16    1
     4    16    14    1
     5    14     1    1
     6     1     2   ar
     7     2     3   ar
     8     3     4    1
     9     3     5   ar
    10     5     6   ar
    11     6     7   ar
    12     7     8   ar
    13     8     9   ar
    14     9    10   ar
    15    10    20    1
    16    20    21    1
    17    21    22    1
    18    22    23   ar
    19    23    24   ar
    20    24    25   ar
    21    25    26   ar
    22    26    27   ar
    23    10    11   ar
    24    11     1   ar
    25    11     6   ar
    26    27    22   ar
    27    14    15    1
    28     4    12    1
    29     4    13    1
@<TRIPOS>MOLECULE
*****
 27 29 0 0 0
SMALL
GASTEIGER

@<TRIPOS>ATOM
      1 C          63.4816   85.6228   13.3102 C.ar    1  UNL1        0.1357
      2 N          63.5531   84.1341   13.4792 N.ar    1  UNL1       -0.1992
      3 C          63.0532   83.2309   12.3910 C.ar    1  UNL1        0.2148
      4 N          63.1247   81.7421   12.5600 N.pl3   1  UNL1       -0.3274
      5 N          62.4817   83.8164   11.1337 N.ar    1  UNL1       -0.2138
      6 C          62.4102   85.3051   10.9647 C.ar    1  UNL1        0.0898
      7 C          61.8387   85.8906    9.7075 C.ar    1  UNL1        0.0195
      8 C          61.7672   87.3793    9.5385 C.ar    1  UNL1        0.0047
      9 C          62.2672   88.2825   10.6267 C.ar    1  UNL1        0.0371
     10 C          62.8386   87.6971   11.8839 C.ar    1  UNL1        0.1432
     11 C          62.9101   86.2084   12.0529 C.ar    1  UNL1        0.0831
     12 H          63.4998   81.3579   13.3852 H       1  UNL1        0.1452
     13 H          62.7966   81.1493   11.8458 H       1  UNL1        0.1452
     14 N          63.9815   86.5261   14.3984 N.pl3   1  UNL1       -0.3179
     15 H          64.1483   87.4779   14.2102 H       1  UNL1        0.1482
     16 C          64.2273   85.9791   15.7733 C.3     1  UNL1        0.0882
     17 C          63.1168   85.9572   16.7814 C.3     1  UNL1        0.0212
     18 C          63.0791   88.5495   16.9513 C.3     1  UNL1        0.0001
     19 C          62.7645   87.2046   17.5364 C.3     1  UNL1        0.0017
     20 O          63.3385   88.6003   12.9721 O.3     1  UNL1       -0.4688
     21 C          62.9587   90.0514   12.9760 C.3     1  UNL1        0.2508
     22 C          63.9624   91.0905   12.5725 C.ar    1  UNL1        0.1026
     23 C          64.0829   91.4982   11.1340 C.ar    1  UNL1        0.0185
     24 C          65.0867   92.5373   10.7305 C.ar    1  UNL1        0.0029
     25 C          65.9699   93.1687   11.7656 C.ar    1  UNL1        0.0207
     26 C          65.8493   92.7610   13.2040 C.ar    1  UNL1        0.0986
     27 N          64.8456   91.7219   13.6075 N.ar    1  UNL1       -0.2445
@<TRIPOS>BOND
     1    18    19    1
     2    19    17    1
     3    17    16    1
     4    16    14    1
     5    14     1    1
     6     1     2   ar
     7     2     3   ar
     8     3     4    1
     9     3     5   ar
    10     5     6   ar
    11     6     7   ar
    12     7     8   ar
    13     8     9   ar
    14     9    10   ar
    15    10    20    1
    16    20    21    1
    17    21    22    1
    18    22    23   ar
    19    23    24   ar
    20    24    25   ar
    21    25    26   ar
    22    26    27   ar
    23    10    11   ar
    24    11     1   ar
    25    11     6   ar
    26    27    22   ar
    27    14    15    1
    28     4    12    1
    29     4    13    1
@<TRIPOS>MOLECULE
*****
 27 29 0 0 0
SMALL
GASTEIGER

@<TRIPOS>ATOM
      1 C          62.9939   87.6213   12.2941 C.ar    1  UNL1        0.1357
      2 N          63.2946   86.2386   12.7917 N.ar    1  UNL1       -0.1992
      3 C          62.6880   85.0479   12.1104 C.ar    1  UNL1        0.2148
      4 N          62.9887   83.6651   12.6081 N.pl3   1  UNL1       -0.3274
      5 N          61.7807   85.2398   10.9315 N.ar    1  UNL1       -0.2138
      6 C          61.4800   86.6226   10.4338 C.ar    1  UNL1        0.0898
      7 C          60.5727   86.8145    9.2549 C.ar    1  UNL1        0.0195
      8 C          60.2720   88.1972    8.7572 C.ar    1  UNL1        0.0047
      9 C          60.8786   89.3879    9.4385 C.ar    1  UNL1        0.0371
     10 C          61.7858   89.1960   10.6175 C.ar    1  UNL1        0.1432
     11 C          62.0865   87.8133   11.1151 C.ar    1  UNL1        0.0831
     12 H          63.5842   83.5391   13.3819 H       1  UNL1        0.1452
     13 H          62.5906   82.8836   12.1610 H       1  UNL1        0.1452
     14 N          63.6004   88.8120   12.9754 N.pl3   1  UNL1       -0.3179
     15 H          63.7275   89.6521   12.4779 H       1  UNL1        0.1482
     16 C          64.0134   88.7230   14.4147 C.3     1  UNL1        0.0882
     17 C          63.3806   89.6236   15.4337 C.3     1  UNL1        0.0212
     18 C          62.8873   87.7527   17.1676 C.3     1  UNL1        0.0001
     19 C          63.2573   89.1733   16.8592 C.3     1  UNL1        0.0017
     20 O          62.3924   90.3867   11.2988 O.3     1  UNL1       -0.4688
     21 C          63.3630   91.2598   10.5601 C.3     1  UNL1        0.2508
     22 C          64.4363   91.9906   11.3110 C.ar    1  UNL1        0.1026
     23 C          65.3660   92.9144   10.5813 C.ar    1  UNL1        0.0185
     24 C          66.4393   93.6452   11.3323 C.ar    1  UNL1        0.0029
     25 C          66.5830   93.4521   12.8129 C.ar    1  UNL1        0.0207
     26 C          65.6534   92.5283   13.5425 C.ar    1  UNL1        0.0986
     27 N          64.5800   91.7975   12.7915 N.ar    1  UNL1       -0.2445
@<TRIPOS>BOND
     1    18    19    1
     2    19    17    1
     3    17    16    1
     4    16    14    1
     5    14     1    1
     6     1     2   ar
     7     2     3   ar
     8     3     4    1
     9     3     5   ar
    10     5     6   ar
    11     6     7   ar
    12     7     8   ar
    13     8     9   ar
    14     9    10   ar
    15    10    20    1
    16    20    21    1
    17    21    22    1
    18    22    23   ar
    19    23    24   ar
    20    24    25   ar
    21    25    26   ar
    22    26    27   ar
    23    10    11   ar
    24    11     1   ar
    25    11     6   ar
    26    27    22   ar
    27    14    15    1
    28     4    12    1
    29     4    13    1
@<TRIPOS>MOLECULE
*****
 27 29 0 0 0
SMALL
GASTEIGER

@<TRIPOS>ATOM
      1 C          61.8026   86.4957   10.7108 C.ar    1  UNL1        0.1357
      2 N          60.9006   85.9023    9.6696 N.ar    1  UNL1       -0.1992
      3 C          60.2091   86.7931    8.6805 C.ar    1  UNL1        0.2148
      4 N          59.3070   86.1996    7.6393 N.pl3   1  UNL1       -0.3274
      5 N          60.4197   88.2773    8.7326 N.ar    1  UNL1       -0.2138
      6 C          61.3218   88.8708    9.7738 C.ar    1  UNL1        0.0898
      7 C          61.5323   90.3550    9.8259 C.ar    1  UNL1        0.0195
      8 C          62.4344   90.9484   10.8670 C.ar    1  UNL1        0.0047
      9 C          63.1258   90.0576   11.8562 C.ar    1  UNL1        0.0371
     10 C          62.9153   88.5734   11.8041 C.ar    1  UNL1        0.1432
     11 C          62.0132   87.9800   10.7629 C.ar    1  UNL1        0.0831
     12 H          59.1688   85.2255    7.6051 H       1  UNL1        0.1452
     13 H          58.8532   86.7842    6.9900 H       1  UNL1        0.1452
     14 N          62.4941   85.6050   11.6999 N.pl3   1  UNL1       -0.3179
     15 H          62.7080   85.9416   12.6001 H       1  UNL1        0.1482
     16 C          62.8596   84.2013   11.3177 C.3     1  UNL1        0.0882
     17 C          63.1603   83.1882   12.3822 C.3     1  UNL1        0.0212
     18 C          61.8226   81.2424   13.4659 C.3     1  UNL1        0.0001
     19 C          62.5692   81.8122   12.2964 C.3     1  UNL1        0.0017
     20 O          63.6067   87.6826   12.7932 O.3     1  UNL1       -0.4688
     21 C          64.0982   88.2454   14.0939 C.3     1  UNL1        0.2508
     22 C          63.6405   87.6467   15.3908 C.ar    1  UNL1        0.1026
     23 C          63.3002   88.5369   16.5492 C.ar    1  UNL1        0.0185
     24 C          62.8426   87.9381   17.8461 C.ar    1  UNL1        0.0029
     25 C          62.7253   86.4491   17.9847 C.ar    1  UNL1        0.0207
     26 C          63.0657   85.5589   16.8264 C.ar    1  UNL1        0.0986
     27 N          63.5233   86.1577   15.5295 N.ar    1  UNL1       -0.2445
@<TRIPOS>BOND
     1    18    19    1
     2    19    17    1
     3    17    16    1
     4    16    14    1
     5    14     1    1
     6     1     2   ar
     7     2     3   ar
     8     3     4    1
     9     3     5   ar
    10     5     6   ar
    11     6     7   ar
    12     7     8   ar
    13     8     9   ar
    14     9    10   ar
    15    10    20    1
    16    20    21    1
    17    21    22    1
    18    22    23   ar
    19    23    24   ar
    20    24    25   ar
    21    25    26   ar
    22    26    27   ar
    23    10    11   ar
    24    11     1   ar
    25    11     6   ar
    26    27    22   ar
    27    14    15    1
    28     4    12    1
    29     4    13    1
@<TRIPOS>MOLECULE
*****
 27 29 0 0 0
SMALL
GASTEIGER

@<TRIPOS>ATOM
      1 C          62.8835   84.5701   12.0019 C.ar    1  UNL1        0.1357
      2 N          62.9409   83.1300   12.4176 N.ar    1  UNL1       -0.1992
      3 C          63.4675   82.7610   13.7728 C.ar    1  UNL1        0.2148
      4 N          63.5249   81.3208   14.1885 N.pl3   1  UNL1       -0.3274
      5 N          63.9368   83.8320   14.7122 N.ar    1  UNL1       -0.2138
      6 C          63.8794   85.2722   14.2966 C.ar    1  UNL1        0.0898
      7 C          64.3486   86.3432   15.2360 C.ar    1  UNL1        0.0195
      8 C          64.2912   87.7833   14.8203 C.ar    1  UNL1        0.0047
      9 C          63.7646   88.1523   13.4651 C.ar    1  UNL1        0.0371
     10 C          63.2953   87.0813   12.5257 C.ar    1  UNL1        0.1432
     11 C          63.3527   85.6412   12.9414 C.ar    1  UNL1        0.0831
     12 H          63.2169   80.6178   13.5719 H       1  UNL1        0.1452
     13 H          63.8706   81.0786   15.0779 H       1  UNL1        0.1452
     14 N          62.3568   84.9391   10.6468 N.pl3   1  UNL1       -0.3179
     15 H          61.5001   85.4172   10.5650 H       1  UNL1        0.1482
     16 C          63.1354   84.5796    9.4161 C.3     1  UNL1        0.0882
     17 C          62.9603   85.3776    8.1581 C.3     1  UNL1        0.0212
     18 C          62.2995   84.3788    5.8525 C.3     1  UNL1        0.0001
     19 C          61.9055   84.9896    7.1646 C.3     1  UNL1        0.0017
     20 O          62.7687   87.4503   11.1705 O.3     1  UNL1       -0.4688
     21 C          61.5218   88.2753   11.0496 C.3     1  UNL1        0.2508
     22 C          60.6753   88.1786    9.8150 C.ar    1  UNL1        0.1026
     23 C          60.5328   89.3653    8.9085 C.ar    1  UNL1        0.0185
     24 C          59.6863   89.2686    7.6740 C.ar    1  UNL1        0.0029
     25 C          58.9823   87.9852    7.3460 C.ar    1  UNL1        0.0207
     26 C          59.1248   86.7987    8.2525 C.ar    1  UNL1        0.0986
     27 N          59.9713   86.8954    9.4870 N.ar    1  UNL1       -0.2445
@<TRIPOS>BOND
     1    18    19    1
     2    19    17    1
     3    17    16    1
     4    16    14    1
     5    14     1    1
     6     1     2   ar
     7     2     3   ar
     8     3     4    1
     9     3     5   ar
    10     5     6   ar
    11     6     7   ar
    12     7     8   ar
    13     8     9   ar
    14     9    10   ar
    15    10    20    1
    16    20    21    1
    17    21    22    1
    18    22    23   ar
    19    23    24   ar
    20    24    25   ar
    21    25    26   ar
    22    26    27   ar
    23    10    11   ar
    24    11     1   ar
    25    11     6   ar
    26    27    22   ar
    27    14    15    1
    28     4    12    1
    29     4    13    1
