@<TRIPOS>MOLECULE
*****
 21 24 0 0 0
SMALL
GASTEIGER

@<TRIPOS>ATOM
      1 C          65.2557   91.9751   13.3277 C.2     1  UNL1        0.1074
      2 N          65.0942   92.0263   14.8181 N.2     1  UNL1       -0.1504
      3 N          66.2252   92.8363   15.3792 N.2     1  UNL1       -0.1507
      4 C          67.0856   93.2856   14.2356 C.2     1  UNL1        0.1058
      5 C          66.4864   92.7534   12.9677 C.3     1  UNL1        0.1089
      6 C          67.0236   92.9627   11.5829 C.ar    1  UNL1       -0.0081
      7 C          67.8057   91.8743   10.9094 C.ar    1  UNL1        0.0171
      8 C          68.3428   92.0836    9.5246 C.ar    1  UNL1        0.0985
      9 N          68.0979   93.3813    8.8133 N.ar    1  UNL1       -0.2439
     10 C          67.3158   94.4697    9.4868 C.ar    1  UNL1        0.0810
     11 C          67.0709   95.7674    8.7756 C.ar    1  UNL1        0.0191
     12 C          66.2888   96.8558    9.4491 C.ar    1  UNL1        0.0015
     13 C          65.7516   96.6465   10.8339 C.ar    1  UNL1        0.0001
     14 C          65.9965   95.3488   11.5451 C.ar    1  UNL1        0.0012
     15 C          66.7786   94.2604   10.8716 C.ar    1  UNL1        0.0145
     16 C          62.5268   89.8580   10.4429 C.ar    1  UNL1        0.0207
     17 C          63.1413   91.1735   10.0663 C.ar    1  UNL1        0.0032
     18 C          64.0509   91.8791   11.0278 C.ar    1  UNL1        0.0204
     19 C          64.3460   91.2694   12.3661 C.ar    1  UNL1        0.0972
     20 N          63.7315   89.9539   12.7428 N.ar    1  UNL1       -0.2426
     21 C          62.8219   89.2482   11.7813 C.ar    1  UNL1        0.0989
@<TRIPOS>BOND
     1    16    17   ar
     2    17    18   ar
     3    18    19   ar
     4    19     1    1
     5     1     2    2
     6     2     3    1
     7     3     4    2
     8     4     5    1
     9     5     6    1
    10     6     7   ar
    11     7     8   ar
    12     8     9   ar
    13     9    10   ar
    14    10    11   ar
    15    11    12   ar
    16    12    13   ar
    17    13    14   ar
    18    14    15   ar
    19    19    20   ar
    20    20    21   ar
    21    21    16   ar
    22     5     1    1
    23    15     6   ar
    24    15    10   ar
@<TRIPOS>MOLECULE
*****
 21 24 0 0 0
SMALL
GASTEIGER

@<TRIPOS>ATOM
      1 C          65.5461   91.9715   13.0551 C.2     1  UNL1        0.1074
      2 N          64.2430   91.4042   13.5351 N.2     1  UNL1       -0.1504
      3 N          63.3671   91.1782   12.3386 N.2     1  UNL1       -0.1507
      4 C          64.1287   91.6058   11.1192 C.2     1  UNL1        0.1058
      5 C          65.4754   92.0961   11.5620 C.3     1  UNL1        0.1089
      6 C          66.5609   92.6191   10.6685 C.ar    1  UNL1       -0.0081
      7 C          67.7038   91.7299   10.2773 C.ar    1  UNL1        0.0171
      8 C          68.7892   92.2529    9.3839 C.ar    1  UNL1        0.0985
      9 N          68.7318   93.6651    8.8816 N.ar    1  UNL1       -0.2439
     10 C          67.5889   94.5544    9.2729 C.ar    1  UNL1        0.0810
     11 C          67.5315   95.9666    8.7706 C.ar    1  UNL1        0.0191
     12 C          66.3886   96.8558    9.1618 C.ar    1  UNL1        0.0015
     13 C          65.3031   96.3328   10.0553 C.ar    1  UNL1        0.0001
     14 C          65.3605   94.9206   10.5575 C.ar    1  UNL1        0.0012
     15 C          66.5034   94.0314   10.1663 C.ar    1  UNL1        0.0145
     16 C          69.0516   93.1011   15.6407 C.ar    1  UNL1        0.0207
     17 C          67.6598   93.4696   16.0614 C.ar    1  UNL1        0.0032
     18 C          66.4913   93.0931   15.1995 C.ar    1  UNL1        0.0204
     19 C          66.7146   92.3480   13.9170 C.ar    1  UNL1        0.0972
     20 N          68.1065   91.9795   13.4963 N.ar    1  UNL1       -0.2426
     21 C          69.2749   92.3560   14.3581 C.ar    1  UNL1        0.0989
@<TRIPOS>BOND
     1    16    17   ar
     2    17    18   ar
     3    18    19   ar
     4    19     1    1
     5     1     2    2
     6     2     3    1
     7     3     4    2
     8     4     5    1
     9     5     6    1
    10     6     7   ar
    11     7     8   ar
    12     8     9   ar
    13     9    10   ar
    14    10    11   ar
    15    11    12   ar
    16    12    13   ar
    17    13    14   ar
    18    14    15   ar
    19    19    20   ar
    20    20    21   ar
    21    21    16   ar
    22     5     1    1
    23    15     6   ar
    24    15    10   ar
@<TRIPOS>MOLECULE
*****
 21 24 0 0 0
SMALL
GASTEIGER

@<TRIPOS>ATOM
      1 C          65.7104   92.1641   13.8179 C.2     1  UNL1        0.1074
      2 N          66.0735   92.8424   15.1056 N.2     1  UNL1       -0.1504
      3 N          65.1546   92.3297   16.1746 N.2     1  UNL1       -0.1507
      4 C          64.2237   91.3346   15.5476 C.2     1  UNL1        0.1058
      5 C          64.5672   91.2323   14.0910 C.3     1  UNL1        0.1089
      6 C          63.8869   90.3526   13.0844 C.ar    1  UNL1       -0.0081
      7 C          63.2541   90.9571   11.8662 C.ar    1  UNL1        0.0171
      8 C          62.5738   90.0774   10.8596 C.ar    1  UNL1        0.0985
      9 N          62.5263   88.5931   11.0712 N.ar    1  UNL1       -0.2439
     10 C          63.1591   87.9886   12.2894 C.ar    1  UNL1        0.0810
     11 C          63.1116   86.5044   12.5010 C.ar    1  UNL1        0.0191
     12 C          63.7443   85.8999   13.7193 C.ar    1  UNL1        0.0015
     13 C          64.4246   86.7796   14.7259 C.ar    1  UNL1        0.0001
     14 C          64.4721   88.2638   14.5143 C.ar    1  UNL1        0.0012
     15 C          63.8394   88.8683   13.2961 C.ar    1  UNL1        0.0145
     16 C          67.7017   92.8113    9.8346 C.ar    1  UNL1        0.0207
     17 C          66.3364   93.3771   10.0914 C.ar    1  UNL1        0.0032
     18 C          65.6727   93.1613   11.4192 C.ar    1  UNL1        0.0204
     19 C          66.3742   92.3799   12.4901 C.ar    1  UNL1        0.0972
     20 N          67.7395   91.8140   12.2334 N.ar    1  UNL1       -0.2426
     21 C          68.4032   92.0297   10.9057 C.ar    1  UNL1        0.0989
@<TRIPOS>BOND
     1    16    17   ar
     2    17    18   ar
     3    18    19   ar
     4    19     1    1
     5     1     2    2
     6     2     3    1
     7     3     4    2
     8     4     5    1
     9     5     6    1
    10     6     7   ar
    11     7     8   ar
    12     8     9   ar
    13     9    10   ar
    14    10    11   ar
    15    11    12   ar
    16    12    13   ar
    17    13    14   ar
    18    14    15   ar
    19    19    20   ar
    20    20    21   ar
    21    21    16   ar
    22     5     1    1
    23    15     6   ar
    24    15    10   ar
@<TRIPOS>MOLECULE
*****
 21 24 0 0 0
SMALL
GASTEIGER

@<TRIPOS>ATOM
      1 C          65.3370   92.2596   13.3938 C.2     1  UNL1        0.1074
      2 N          65.5088   91.8520   14.8271 N.2     1  UNL1       -0.1504
      3 N          66.4891   92.7931   15.4622 N.2     1  UNL1       -0.1507
      4 C          66.9232   93.7821   14.4214 C.2     1  UNL1        0.1058
      5 C          66.2112   93.4524   13.1430 C.3     1  UNL1        0.1089
      6 C          66.3491   94.1866   11.8423 C.ar    1  UNL1       -0.0081
      7 C          65.6968   95.5256   11.6640 C.ar    1  UNL1        0.0171
      8 C          65.8348   96.2598   10.3633 C.ar    1  UNL1        0.0985
      9 N          66.6249   95.6551    9.2408 N.ar    1  UNL1       -0.2439
     10 C          67.2772   94.3161    9.4190 C.ar    1  UNL1        0.0810
     11 C          68.0673   93.7114    8.2966 C.ar    1  UNL1        0.0191
     12 C          68.7195   92.3724    8.4748 C.ar    1  UNL1        0.0015
     13 C          68.5816   91.6382    9.7756 C.ar    1  UNL1        0.0001
     14 C          67.7915   92.2429   10.8980 C.ar    1  UNL1        0.0012
     15 C          67.1393   93.5819   10.7198 C.ar    1  UNL1        0.0145
     16 C          62.6676   90.2552   10.3759 C.ar    1  UNL1        0.0207
     17 C          63.4193   91.4987   10.0035 C.ar    1  UNL1        0.0032
     18 C          64.3091   92.1668   11.0095 C.ar    1  UNL1        0.0204
     19 C          64.4472   91.5914   12.3878 C.ar    1  UNL1        0.0972
     20 N          63.6955   90.3479   12.7602 N.ar    1  UNL1       -0.2426
     21 C          62.8058   89.6798   11.7543 C.ar    1  UNL1        0.0989
@<TRIPOS>BOND
     1    16    17   ar
     2    17    18   ar
     3    18    19   ar
     4    19     1    1
     5     1     2    2
     6     2     3    1
     7     3     4    2
     8     4     5    1
     9     5     6    1
    10     6     7   ar
    11     7     8   ar
    12     8     9   ar
    13     9    10   ar
    14    10    11   ar
    15    11    12   ar
    16    12    13   ar
    17    13    14   ar
    18    14    15   ar
    19    19    20   ar
    20    20    21   ar
    21    21    16   ar
    22     5     1    1
    23    15     6   ar
    24    15    10   ar
@<TRIPOS>MOLECULE
*****
 21 24 0 0 0
SMALL
GASTEIGER

@<TRIPOS>ATOM
      1 C          63.9722   84.6854   13.4450 C.2     1  UNL1        0.1074
      2 N          64.7221   84.6450   14.7434 N.2     1  UNL1       -0.1504
      3 N          64.7254   86.0297   15.3200 N.2     1  UNL1       -0.1507
      4 C          63.9775   86.9259   14.3780 C.2     1  UNL1        0.1058
      5 C          63.5120   86.0951   13.2191 C.3     1  UNL1        0.1089
      6 C          62.7245   86.5874   12.0412 C.ar    1  UNL1       -0.0081
      7 C          61.9302   85.6213   11.2133 C.ar    1  UNL1        0.0171
      8 C          61.1427   86.1136   10.0354 C.ar    1  UNL1        0.0985
      9 N          61.1495   87.5722    9.6854 N.ar    1  UNL1       -0.2439
     10 C          61.9439   88.5384   10.5133 C.ar    1  UNL1        0.0810
     11 C          61.9507   89.9970   10.1633 C.ar    1  UNL1        0.0191
     12 C          62.7451   90.9632   10.9913 C.ar    1  UNL1        0.0015
     13 C          63.5325   90.4708   12.1692 C.ar    1  UNL1        0.0001
     14 C          63.5257   89.0122   12.5191 C.ar    1  UNL1        0.0012
     15 C          62.7314   88.0461   11.6912 C.ar    1  UNL1        0.0145
     16 C          63.2327   81.1908   10.7079 C.ar    1  UNL1        0.0207
     17 C          64.1914   82.2711   10.3028 C.ar    1  UNL1        0.0032
     18 C          64.4378   83.4359   11.2152 C.ar    1  UNL1        0.0204
     19 C          63.7257   83.5206   12.5326 C.ar    1  UNL1        0.0972
     20 N          62.7670   82.4403   12.9377 N.ar    1  UNL1       -0.2426
     21 C          62.5205   81.2755   12.0254 C.ar    1  UNL1        0.0989
@<TRIPOS>BOND
     1    16    17   ar
     2    17    18   ar
     3    18    19   ar
     4    19     1    1
     5     1     2    2
     6     2     3    1
     7     3     4    2
     8     4     5    1
     9     5     6    1
    10     6     7   ar
    11     7     8   ar
    12     8     9   ar
    13     9    10   ar
    14    10    11   ar
    15    11    12   ar
    16    12    13   ar
    17    13    14   ar
    18    14    15   ar
    19    19    20   ar
    20    20    21   ar
    21    21    16   ar
    22     5     1    1
    23    15     6   ar
    24    15    10   ar
@<TRIPOS>MOLECULE
*****
 21 24 0 0 0
SMALL
GASTEIGER

@<TRIPOS>ATOM
      1 C          63.4540   86.2303   13.1308 C.2     1  UNL1        0.1074
      2 N          63.8132   87.0684   14.3218 N.2     1  UNL1       -0.1504
      3 N          64.6201   86.2198   15.2593 N.2     1  UNL1       -0.1507
      4 C          64.7597   84.8573   14.6475 C.2     1  UNL1        0.1058
      5 C          64.0389   84.8638   13.3321 C.3     1  UNL1        0.1089
      6 C          63.9235   83.7069   12.3843 C.ar    1  UNL1       -0.0081
      7 C          64.5806   83.7722   11.0375 C.ar    1  UNL1        0.0171
      8 C          64.4651   82.6153   10.0897 C.ar    1  UNL1        0.0985
      9 N          63.6925   81.3931   10.4887 N.ar    1  UNL1       -0.2439
     10 C          63.0353   81.3278   11.8356 C.ar    1  UNL1        0.0810
     11 C          62.2626   80.1056   12.2346 C.ar    1  UNL1        0.0191
     12 C          61.6055   80.0403   13.5813 C.ar    1  UNL1        0.0015
     13 C          61.7209   81.1972   14.5291 C.ar    1  UNL1        0.0001
     14 C          62.4936   82.4194   14.1301 C.ar    1  UNL1        0.0012
     15 C          63.1507   82.4847   12.7833 C.ar    1  UNL1        0.0145
     16 C          61.0446   87.5790    9.5775 C.ar    1  UNL1        0.0207
     17 C          61.0303   86.1368    9.9896 C.ar    1  UNL1        0.0032
     18 C          61.8334   85.6873   11.1740 C.ar    1  UNL1        0.0204
     19 C          62.6509   86.6798   11.9463 C.ar    1  UNL1        0.0972
     20 N          62.6652   88.1221   11.5342 N.ar    1  UNL1       -0.2426
     21 C          61.8621   88.5717   10.3498 C.ar    1  UNL1        0.0989
@<TRIPOS>BOND
     1    16    17   ar
     2    17    18   ar
     3    18    19   ar
     4    19     1    1
     5     1     2    2
     6     2     3    1
     7     3     4    2
     8     4     5    1
     9     5     6    1
    10     6     7   ar
    11     7     8   ar
    12     8     9   ar
    13     9    10   ar
    14    10    11   ar
    15    11    12   ar
    16    12    13   ar
    17    13    14   ar
    18    14    15   ar
    19    19    20   ar
    20    20    21   ar
    21    21    16   ar
    22     5     1    1
    23    15     6   ar
    24    15    10   ar
@<TRIPOS>MOLECULE
*****
 21 24 0 0 0
SMALL
GASTEIGER

@<TRIPOS>ATOM
      1 C          62.7512   86.4210   11.7739 C.2     1  UNL1        0.1074
      2 N          62.9974   87.6032   12.6637 N.2     1  UNL1       -0.1504
      3 N          63.8495   87.1496   13.8119 N.2     1  UNL1       -0.1507
      4 C          64.1299   85.6871   13.6315 C.2     1  UNL1        0.1058
      5 C          63.4511   85.2368   12.3720 C.3     1  UNL1        0.1089
      6 C          63.4690   83.8464   11.8094 C.ar    1  UNL1       -0.0081
      7 C          64.1049   83.5849   10.4763 C.ar    1  UNL1        0.0171
      8 C          64.1229   82.1945    9.9136 C.ar    1  UNL1        0.0985
      9 N          63.5049   81.0656   10.6841 N.ar    1  UNL1       -0.2439
     10 C          62.8690   81.3271   12.0173 C.ar    1  UNL1        0.0810
     11 C          62.2511   80.1982   12.7878 C.ar    1  UNL1        0.0191
     12 C          61.6152   80.4597   14.1209 C.ar    1  UNL1        0.0015
     13 C          61.5973   81.8501   14.6836 C.ar    1  UNL1        0.0001
     14 C          62.2152   82.9789   13.9131 C.ar    1  UNL1        0.0012
     15 C          62.8511   82.7175   12.5800 C.ar    1  UNL1        0.0145
     16 C          60.3365   86.4263    7.9766 C.ar    1  UNL1        0.0207
     17 C          61.7025   85.8070    7.9959 C.ar    1  UNL1        0.0032
     18 C          62.5074   85.8052    9.2616 C.ar    1  UNL1        0.0204
     19 C          61.9463   86.4228   10.5081 C.ar    1  UNL1        0.0972
     20 N          60.5802   87.0421   10.4888 N.ar    1  UNL1       -0.2426
     21 C          59.7754   87.0439    9.2231 C.ar    1  UNL1        0.0989
@<TRIPOS>BOND
     1    16    17   ar
     2    17    18   ar
     3    18    19   ar
     4    19     1    1
     5     1     2    2
     6     2     3    1
     7     3     4    2
     8     4     5    1
     9     5     6    1
    10     6     7   ar
    11     7     8   ar
    12     8     9   ar
    13     9    10   ar
    14    10    11   ar
    15    11    12   ar
    16    12    13   ar
    17    13    14   ar
    18    14    15   ar
    19    19    20   ar
    20    20    21   ar
    21    21    16   ar
    22     5     1    1
    23    15     6   ar
    24    15    10   ar
@<TRIPOS>MOLECULE
*****
 21 24 0 0 0
SMALL
GASTEIGER

@<TRIPOS>ATOM
      1 C          63.4055   84.2923   12.1501 C.2     1  UNL1        0.1074
      2 N          63.8910   82.9479   11.6951 N.2     1  UNL1       -0.1504
      3 N          63.7952   82.9026   10.1988 N.2     1  UNL1       -0.1507
      4 C          63.2505   84.2190    9.7291 C.2     1  UNL1        0.1058
      5 C          63.0097   85.0779   10.9351 C.3     1  UNL1        0.1089
      6 C          62.4682   86.4767   10.9273 C.ar    1  UNL1       -0.0081
      7 C          62.9479   87.4723   11.9416 C.ar    1  UNL1        0.0171
      8 C          62.4064   88.8711   11.9338 C.ar    1  UNL1        0.0985
      9 N          61.3852   89.2743   10.9119 N.ar    1  UNL1       -0.2439
     10 C          60.9054   88.2787    9.8976 C.ar    1  UNL1        0.0810
     11 C          59.8842   88.6820    8.8757 C.ar    1  UNL1        0.0191
     12 C          59.4044   87.6864    7.8614 C.ar    1  UNL1        0.0015
     13 C          59.9460   86.2876    7.8692 C.ar    1  UNL1        0.0001
     14 C          60.9672   85.8844    8.8911 C.ar    1  UNL1        0.0012
     15 C          61.4469   86.8799    9.9053 C.ar    1  UNL1        0.0145
     16 C          63.1768   85.7184   16.4121 C.ar    1  UNL1        0.0207
     17 C          64.3594   86.0792   15.5629 C.ar    1  UNL1        0.0032
     18 C          64.4356   85.6039   14.1422 C.ar    1  UNL1        0.0204
     19 C          63.3293   84.7677   13.5707 C.ar    1  UNL1        0.0972
     20 N          62.1466   84.4068   14.4200 N.ar    1  UNL1       -0.2426
     21 C          62.0703   84.8822   15.8405 C.ar    1  UNL1        0.0989
@<TRIPOS>BOND
     1    16    17   ar
     2    17    18   ar
     3    18    19   ar
     4    19     1    1
     5     1     2    2
     6     2     3    1
     7     3     4    2
     8     4     5    1
     9     5     6    1
    10     6     7   ar
    11     7     8   ar
    12     8     9   ar
    13     9    10   ar
    14    10    11   ar
    15    11    12   ar
    16    12    13   ar
    17    13    14   ar
    18    14    15   ar
    19    19    20   ar
    20    20    21   ar
    21    21    16   ar
    22     5     1    1
    23    15     6   ar
    24    15    10   ar
@<TRIPOS>MOLECULE
*****
 21 24 0 0 0
SMALL
GASTEIGER

@<TRIPOS>ATOM
      1 C          62.2109   86.3703    9.7606 C.2     1  UNL1        0.1074
      2 N          62.2722   86.0039    8.3073 N.2     1  UNL1       -0.1504
      3 N          62.9888   84.6914    8.1900 N.2     1  UNL1       -0.1507
      4 C          63.3704   84.2467    9.5708 C.2     1  UNL1        0.1058
      5 C          62.8897   85.2843   10.5414 C.3     1  UNL1        0.1089
      6 C          63.0581   85.2431   12.0314 C.ar    1  UNL1       -0.0081
      7 C          63.5041   86.4701   12.7700 C.ar    1  UNL1        0.0171
      8 C          63.6726   86.4289   14.2599 C.ar    1  UNL1        0.0985
      9 N          63.3950   85.1607   15.0113 N.ar    1  UNL1       -0.2439
     10 C          62.9490   83.9336   14.2727 C.ar    1  UNL1        0.0810
     11 C          62.6715   82.6654   15.0241 C.ar    1  UNL1        0.0191
     12 C          62.2255   81.4384   14.2855 C.ar    1  UNL1        0.0015
     13 C          62.0570   81.4796   12.7956 C.ar    1  UNL1        0.0001
     14 C          62.3346   82.7478   12.0442 C.ar    1  UNL1        0.0012
     15 C          62.7806   83.9748   12.7828 C.ar    1  UNL1        0.0145
     16 C          60.3223   90.0769   11.4765 C.ar    1  UNL1        0.0207
     17 C          61.5645   90.1853   10.6428 C.ar    1  UNL1        0.0032
     18 C          62.1940   88.9497   10.0708 C.ar    1  UNL1        0.0204
     19 C          61.5814   87.6059   10.3325 C.ar    1  UNL1        0.0972
     20 N          60.3391   87.4975   11.1663 N.ar    1  UNL1       -0.2426
     21 C          59.7096   88.7329   11.7382 C.ar    1  UNL1        0.0989
@<TRIPOS>BOND
     1    16    17   ar
     2    17    18   ar
     3    18    19   ar
     4    19     1    1
     5     1     2    2
     6     2     3    1
     7     3     4    2
     8     4     5    1
     9     5     6    1
    10     6     7   ar
    11     7     8   ar
    12     8     9   ar
    13     9    10   ar
    14    10    11   ar
    15    11    12   ar
    16    12    13   ar
    17    13    14   ar
    18    14    15   ar
    19    19    20   ar
    20    20    21   ar
    21    21    16   ar
    22     5     1    1
    23    15     6   ar
    24    15    10   ar
