@<TRIPOS>MOLECULE
*****
 32 35 0 0 0
SMALL
GASTEIGER

@<TRIPOS>ATOM
      1 N          62.2906   86.7410   11.5412 N.am    1  UNL1       -0.2683
      2 C          63.0521   87.7381   12.3634 C.2     1  UNL1        0.3047
      3 O          64.2669   87.3064   13.1301 O.2     1  UNL1       -0.2525
      4 N          62.5987   89.1668   12.4190 N.am    1  UNL1       -0.2863
      5 H          61.4933   87.0244   11.0379 H       1  UNL1        0.1564
      6 H          61.8014   89.4502   11.9157 H       1  UNL1        0.1512
      7 C          62.3375   84.9824   16.6554 C.3     1  UNL1        0.0521
      8 C          62.6658   84.3505   15.3352 C.ar    1  UNL1        0.0594
      9 C          62.5407   85.1473   14.0705 C.ar    1  UNL1        0.0160
     10 C          62.8691   84.5154   12.7503 C.ar    1  UNL1        0.0162
     11 C          62.7440   85.3123   11.4856 C.ar    1  UNL1        0.0516
     12 C          63.0723   84.6804   10.1654 C.ar    1  UNL1        0.0147
     13 C          63.5257   83.2515   10.1100 C.ar    1  UNL1        0.0013
     14 C          63.6507   82.4547   11.3746 C.ar    1  UNL1        0.0016
     15 C          63.3224   83.0867   12.6948 C.ar    1  UNL1        0.0204
     16 C          63.4475   82.2898   13.9595 C.ar    1  UNL1        0.0984
     17 N          63.1192   82.9218   15.2796 N.ar    1  UNL1       -0.2481
     18 C          63.3602   90.1639   13.2412 C.3     1  UNL1        0.1022
     19 C          63.2926   90.1089   14.7387 C.3     1  UNL1        0.0700
     20 C          64.0541   91.1060   15.5609 C.3     1  UNL1        0.2001
     21 O          64.8831   92.1579   14.8857 O.3     1  UNL1       -0.4749
     22 C          64.9507   92.2129   13.3882 C.ar    1  UNL1        0.1632
     23 C          65.7797   93.2649   12.7130 C.ar    1  UNL1        0.1735
     24 F          66.5412   94.2620   13.5352 F       1  UNL1       -0.2010
     25 C          65.8473   93.3199   11.2155 C.ar    1  UNL1        0.0328
     26 C          65.0859   92.3229   10.3933 C.ar    1  UNL1        0.0022
     27 C          64.2568   91.2709   11.0685 C.ar    1  UNL1        0.0005
     28 C          64.1893   91.2159   12.5660 C.ar    1  UNL1        0.0319
     29 C          64.5925   91.8242   16.7626 C.3     1  UNL1        0.2357
     30 F          65.7850   92.7239   16.6268 F       1  UNL1       -0.2303
     31 C          63.4120   90.3034   16.6535 C.3     1  UNL1        0.2357
     32 F          63.4264   88.8048   16.5908 F       1  UNL1       -0.2303
@<TRIPOS>BOND
     1     7     8    1
     2     8     9   ar
     3     9    10   ar
     4    10    11   ar
     5    11     1    1
     6     1     2   am
     7     2     3    2
     8     2     4   am
     9    18     4    1
    10    18    19    1
    11    19    20    1
    12    20    29    1
    13    29    30    1
    14    20    31    1
    15    31    32    1
    16    20    21    1
    17    21    22    1
    18    22    23   ar
    19    23    24    1
    20    23    25   ar
    21    25    26   ar
    22    26    27   ar
    23    27    28   ar
    24    11    12   ar
    25    12    13   ar
    26    13    14   ar
    27    14    15   ar
    28    15    16   ar
    29    16    17   ar
    30    17     8   ar
    31    15    10   ar
    32    28    18    1
    33    28    22   ar
    34     1     5    1
    35     4     6    1
@<TRIPOS>MOLECULE
*****
 32 35 0 0 0
SMALL
GASTEIGER

@<TRIPOS>ATOM
      1 N          62.6166   90.8939   13.4512 N.am    1  UNL1       -0.2683
      2 C          62.7015   89.5697   12.7515 C.2     1  UNL1        0.3047
      3 O          63.9154   88.7060   12.9258 O.2     1  UNL1       -0.2525
      4 N          61.5726   89.1093   11.8777 N.am    1  UNL1       -0.2863
      5 H          61.8199   91.4608   13.3368 H       1  UNL1        0.1564
      6 H          60.7759   89.6763   11.7634 H       1  UNL1        0.1512
      7 C          66.3926   92.8565   10.1135 C.3     1  UNL1        0.0521
      8 C          66.2953   92.7112   11.6033 C.ar    1  UNL1        0.0594
      9 C          65.0691   92.1054   12.2193 C.ar    1  UNL1        0.0160
     10 C          64.9718   91.9600   13.7090 C.ar    1  UNL1        0.0162
     11 C          63.7455   91.3543   14.3250 C.ar    1  UNL1        0.0516
     12 C          63.6482   91.2089   15.8147 C.ar    1  UNL1        0.0147
     13 C          64.7772   91.6693   16.6886 C.ar    1  UNL1        0.0013
     14 C          66.0034   92.2750   16.0726 C.ar    1  UNL1        0.0016
     15 C          66.1007   92.4204   14.5828 C.ar    1  UNL1        0.0204
     16 C          67.3269   93.0261   13.9669 C.ar    1  UNL1        0.0984
     17 N          67.4242   93.1715   12.4771 N.ar    1  UNL1       -0.2481
     18 C          61.6576   87.7852   11.1782 C.3     1  UNL1        0.1022
     19 C          62.4121   86.6517   11.8073 C.3     1  UNL1        0.0700
     20 C          62.4971   85.3275   11.1076 C.3     1  UNL1        0.2001
     21 O          61.8276   85.1369    9.7790 O.3     1  UNL1       -0.4749
     22 C          61.0731   86.2705    9.1499 C.ar    1  UNL1        0.1632
     23 C          60.4036   86.0799    7.8212 C.ar    1  UNL1        0.1735
     24 F          60.4886   84.7558    7.1216 F       1  UNL1       -0.2010
     25 C          59.6491   87.2135    7.1921 C.ar    1  UNL1        0.0328
     26 C          59.5641   88.5376    7.8917 C.ar    1  UNL1        0.0022
     27 C          60.2336   88.7282    9.2203 C.ar    1  UNL1        0.0005
     28 C          60.9881   87.5946    9.8494 C.ar    1  UNL1        0.0319
     29 C          62.8582   83.8970   10.8369 C.3     1  UNL1        0.2357
     30 F          63.5985   83.5346    9.5837 F       1  UNL1       -0.2303
     31 C          63.2921   85.0213   12.3423 C.3     1  UNL1        0.2357
     32 F          64.3868   83.9970   12.2945 F       1  UNL1       -0.2303
@<TRIPOS>BOND
     1     7     8    1
     2     8     9   ar
     3     9    10   ar
     4    10    11   ar
     5    11     1    1
     6     1     2   am
     7     2     3    2
     8     2     4   am
     9    18     4    1
    10    18    19    1
    11    19    20    1
    12    20    29    1
    13    29    30    1
    14    20    31    1
    15    31    32    1
    16    20    21    1
    17    21    22    1
    18    22    23   ar
    19    23    24    1
    20    23    25   ar
    21    25    26   ar
    22    26    27   ar
    23    27    28   ar
    24    11    12   ar
    25    12    13   ar
    26    13    14   ar
    27    14    15   ar
    28    15    16   ar
    29    16    17   ar
    30    17     8   ar
    31    15    10   ar
    32    28    18    1
    33    28    22   ar
    34     1     5    1
    35     4     6    1
@<TRIPOS>MOLECULE
*****
 32 35 0 0 0
SMALL
GASTEIGER

@<TRIPOS>ATOM
      1 N          63.2282   89.9842   13.4705 N.am    1  UNL1       -0.2683
      2 C          63.5077   88.5107   13.4447 C.2     1  UNL1        0.3047
      3 O          64.5836   87.9359   14.3177 O.2     1  UNL1       -0.2525
      4 N          62.7113   87.6119   12.5458 N.am    1  UNL1       -0.2863
      5 H          62.5221   90.3615   12.8975 H       1  UNL1        0.1564
      6 H          62.0051   87.9891   11.9729 H       1  UNL1        0.1512
      7 C          66.4687   92.8565   10.2302 C.3     1  UNL1        0.0521
      8 C          66.2559   92.8125   11.7144 C.ar    1  UNL1        0.0594
      9 C          65.2467   91.8698   12.2997 C.ar    1  UNL1        0.0160
     10 C          65.0339   91.8258   13.7839 C.ar    1  UNL1        0.0162
     11 C          64.0247   90.8830   14.3693 C.ar    1  UNL1        0.0516
     12 C          63.8119   90.8390   15.8535 C.ar    1  UNL1        0.0147
     13 C          64.6084   91.7378   16.7523 C.ar    1  UNL1        0.0013
     14 C          65.6176   92.6805   16.1669 C.ar    1  UNL1        0.0016
     15 C          65.8304   92.7245   14.6827 C.ar    1  UNL1        0.0204
     16 C          66.8396   93.6673   14.0973 C.ar    1  UNL1        0.0984
     17 N          67.0523   93.7113   12.6132 N.ar    1  UNL1       -0.2481
     18 C          62.9907   86.1384   12.5201 C.3     1  UNL1        0.1022
     19 C          63.2127   85.3946   13.8036 C.3     1  UNL1        0.0700
     20 C          63.4922   83.9210   13.7777 C.3     1  UNL1        0.2001
     21 O          63.5496   83.1914   12.4684 O.3     1  UNL1       -0.4749
     22 C          63.3277   83.9352   11.1849 C.ar    1  UNL1        0.1632
     23 C          63.3852   83.2056    9.8756 C.ar    1  UNL1        0.1735
     24 F          63.6646   81.7321    9.8498 F       1  UNL1       -0.2010
     25 C          63.1632   83.9495    8.5921 C.ar    1  UNL1        0.0328
     26 C          62.8837   85.4230    8.6179 C.ar    1  UNL1        0.0022
     27 C          62.8262   86.1526    9.9272 C.ar    1  UNL1        0.0005
     28 C          63.0482   85.4087   11.2107 C.ar    1  UNL1        0.0319
     29 C          63.7872   82.5336   14.2655 C.3     1  UNL1        0.2357
     30 F          64.1857   81.4649   13.2914 F       1  UNL1       -0.2303
     31 C          63.5372   84.1688   15.2565 C.3     1  UNL1        0.2357
     32 F          64.4020   85.2635   15.8075 F       1  UNL1       -0.2303
@<TRIPOS>BOND
     1     7     8    1
     2     8     9   ar
     3     9    10   ar
     4    10    11   ar
     5    11     1    1
     6     1     2   am
     7     2     3    2
     8     2     4   am
     9    18     4    1
    10    18    19    1
    11    19    20    1
    12    20    29    1
    13    29    30    1
    14    20    31    1
    15    31    32    1
    16    20    21    1
    17    21    22    1
    18    22    23   ar
    19    23    24    1
    20    23    25   ar
    21    25    26   ar
    22    26    27   ar
    23    27    28   ar
    24    11    12   ar
    25    12    13   ar
    26    13    14   ar
    27    14    15   ar
    28    15    16   ar
    29    16    17   ar
    30    17     8   ar
    31    15    10   ar
    32    28    18    1
    33    28    22   ar
    34     1     5    1
    35     4     6    1
@<TRIPOS>MOLECULE
*****
 32 35 0 0 0
SMALL
GASTEIGER

@<TRIPOS>ATOM
      1 N          61.4779   89.9064   11.5827 N.am    1  UNL1       -0.2683
      2 C          62.8482   90.5142   11.5279 C.2     1  UNL1        0.3047
      3 O          63.7594   90.2071   10.3767 O.2     1  UNL1       -0.2525
      4 N          63.3072   91.4292   12.6243 N.am    1  UNL1       -0.2863
      5 H          60.8799   90.1080   12.3383 H       1  UNL1        0.1564
      6 H          62.7092   91.6308   13.3799 H       1  UNL1        0.1512
      7 C          63.4709   85.0216   12.7727 C.3     1  UNL1        0.0521
      8 C          62.6284   85.5565   11.6529 C.ar    1  UNL1        0.0594
      9 C          62.2449   87.0065   11.6295 C.ar    1  UNL1        0.0160
     10 C          61.4024   87.5415   10.5097 C.ar    1  UNL1        0.0162
     11 C          61.0189   88.9915   10.4863 C.ar    1  UNL1        0.0516
     12 C          60.1764   89.5265    9.3665 C.ar    1  UNL1        0.0147
     13 C          59.7174   88.6114    8.2701 C.ar    1  UNL1        0.0013
     14 C          60.1009   87.1615    8.2935 C.ar    1  UNL1        0.0016
     15 C          60.9434   86.6265    9.4133 C.ar    1  UNL1        0.0204
     16 C          61.3269   85.1766    9.4367 C.ar    1  UNL1        0.0984
     17 N          62.1694   84.6416   10.5565 N.ar    1  UNL1       -0.2481
     18 C          64.6775   92.0369   12.5695 C.3     1  UNL1        0.1022
     19 C          65.2745   92.4226   11.2486 C.3     1  UNL1        0.0700
     20 C          66.6449   93.0304   11.1938 C.3     1  UNL1        0.2001
     21 O          67.4180   93.2525   12.4598 O.3     1  UNL1       -0.4749
     22 C          66.8209   92.8668   13.7807 C.ar    1  UNL1        0.1632
     23 C          67.5940   93.0889   15.0468 C.ar    1  UNL1        0.1735
     24 F          68.9643   93.6967   14.9920 F       1  UNL1       -0.2010
     25 C          66.9970   92.7032   16.3676 C.ar    1  UNL1        0.0328
     26 C          65.6267   92.0954   16.4225 C.ar    1  UNL1        0.0022
     27 C          64.8536   91.8733   15.1564 C.ar    1  UNL1        0.0005
     28 C          65.4507   92.2590   13.8356 C.ar    1  UNL1        0.0319
     29 C          67.8976   93.6339   10.6314 C.3     1  UNL1        0.2357
     30 F          68.8881   92.7691    9.9095 F       1  UNL1       -0.2303
     31 C          66.3068   93.0179    9.7324 C.3     1  UNL1        0.2357
     32 F          66.6762   94.1862    8.8672 F       1  UNL1       -0.2303
@<TRIPOS>BOND
     1     7     8    1
     2     8     9   ar
     3     9    10   ar
     4    10    11   ar
     5    11     1    1
     6     1     2   am
     7     2     3    2
     8     2     4   am
     9    18     4    1
    10    18    19    1
    11    19    20    1
    12    20    29    1
    13    29    30    1
    14    20    31    1
    15    31    32    1
    16    20    21    1
    17    21    22    1
    18    22    23   ar
    19    23    24    1
    20    23    25   ar
    21    25    26   ar
    22    26    27   ar
    23    27    28   ar
    24    11    12   ar
    25    12    13   ar
    26    13    14   ar
    27    14    15   ar
    28    15    16   ar
    29    16    17   ar
    30    17     8   ar
    31    15    10   ar
    32    28    18    1
    33    28    22   ar
    34     1     5    1
    35     4     6    1
@<TRIPOS>MOLECULE
*****
 32 35 0 0 0
SMALL
GASTEIGER

@<TRIPOS>ATOM
      1 N          63.0276   86.6583   15.2220 N.am    1  UNL1       -0.2683
      2 C          63.7470   87.8261   14.6148 C.2     1  UNL1        0.3047
      3 O          64.7889   87.5990   13.5599 O.2     1  UNL1       -0.2525
      4 N          63.4246   89.2209   15.0626 N.am    1  UNL1       -0.2863
      5 H          62.3437   86.8073   15.9144 H       1  UNL1        0.1564
      6 H          62.7408   89.3699   15.7550 H       1  UNL1        0.1512
      7 C          61.8758   86.4744    9.9409 C.3     1  UNL1        0.0521
      8 C          62.4056   85.4742   10.9254 C.ar    1  UNL1        0.0594
      9 C          62.6129   85.8689   12.3576 C.ar    1  UNL1        0.0160
     10 C          63.1426   84.8687   13.3420 C.ar    1  UNL1        0.0162
     11 C          63.3500   85.2635   14.7742 C.ar    1  UNL1        0.0516
     12 C          63.8797   84.2633   15.7586 C.ar    1  UNL1        0.0147
     13 C          64.2021   82.8684   15.3108 C.ar    1  UNL1        0.0013
     14 C          63.9948   82.4738   13.8786 C.ar    1  UNL1        0.0016
     15 C          63.4650   83.4739   12.8942 C.ar    1  UNL1        0.0204
     16 C          63.2577   83.0793   11.4620 C.ar    1  UNL1        0.0984
     17 N          62.7280   84.0795   10.4776 N.ar    1  UNL1       -0.2481
     18 C          64.1441   90.3886   14.4554 C.3     1  UNL1        0.1022
     19 C          65.0822   91.2084   15.2908 C.3     1  UNL1        0.0700
     20 C          65.8017   92.3762   14.6835 C.3     1  UNL1        0.2001
     21 O          65.5831   92.7241   13.2410 O.3     1  UNL1       -0.4749
     22 C          64.6450   91.9043   12.4055 C.ar    1  UNL1        0.1632
     23 C          64.4264   92.2522   10.9630 C.ar    1  UNL1        0.1735
     24 F          65.1459   93.4200   10.3557 F       1  UNL1       -0.2010
     25 C          63.4883   91.4324   10.1275 C.ar    1  UNL1        0.0328
     26 C          62.7688   90.2646   10.7347 C.ar    1  UNL1        0.0022
     27 C          62.9874   89.9167   12.1773 C.ar    1  UNL1        0.0005
     28 C          63.9255   90.7366   13.0127 C.ar    1  UNL1        0.0319
     29 C          66.7061   93.5667   14.5629 C.3     1  UNL1        0.2357
     30 F          66.4439   94.6045   13.5121 F       1  UNL1       -0.2303
     31 C          66.3344   92.4418   16.0843 C.3     1  UNL1        0.2357
     32 F          67.5598   93.2535   16.3834 F       1  UNL1       -0.2303
@<TRIPOS>BOND
     1     7     8    1
     2     8     9   ar
     3     9    10   ar
     4    10    11   ar
     5    11     1    1
     6     1     2   am
     7     2     3    2
     8     2     4   am
     9    18     4    1
    10    18    19    1
    11    19    20    1
    12    20    29    1
    13    29    30    1
    14    20    31    1
    15    31    32    1
    16    20    21    1
    17    21    22    1
    18    22    23   ar
    19    23    24    1
    20    23    25   ar
    21    25    26   ar
    22    26    27   ar
    23    27    28   ar
    24    11    12   ar
    25    12    13   ar
    26    13    14   ar
    27    14    15   ar
    28    15    16   ar
    29    16    17   ar
    30    17     8   ar
    31    15    10   ar
    32    28    18    1
    33    28    22   ar
    34     1     5    1
    35     4     6    1
@<TRIPOS>MOLECULE
*****
 32 35 0 0 0
SMALL
GASTEIGER

@<TRIPOS>ATOM
      1 N          63.4874   83.7131   10.4157 N.am    1  UNL1       -0.2683
      2 C          62.5785   84.9043   10.3436 C.2     1  UNL1        0.3047
      3 O          61.5355   85.1168   11.4005 O.2     1  UNL1       -0.2525
      4 N          62.7127   85.8828    9.2148 N.am    1  UNL1       -0.2863
      5 H          64.1720   83.5735    9.7221 H       1  UNL1        0.1564
      6 H          63.3973   85.7433    8.5211 H       1  UNL1        0.1512
      7 C          64.6063   86.4704   14.9318 C.3     1  UNL1        0.0521
      8 C          64.2259   85.0471   14.6495 C.ar    1  UNL1        0.0594
      9 C          63.9798   84.6024   13.2382 C.ar    1  UNL1        0.0160
     10 C          63.5994   83.1792   12.9559 C.ar    1  UNL1        0.0162
     11 C          63.3532   82.7345   11.5446 C.ar    1  UNL1        0.0516
     12 C          62.9729   81.3113   11.2622 C.ar    1  UNL1        0.0147
     13 C          62.8387   80.3327   12.3912 C.ar    1  UNL1        0.0013
     14 C          63.0849   80.7774   13.8024 C.ar    1  UNL1        0.0016
     15 C          63.4652   82.2007   14.0848 C.ar    1  UNL1        0.0204
     16 C          63.7114   82.6454   15.4960 C.ar    1  UNL1        0.0984
     17 N          64.0918   84.0686   15.7783 N.ar    1  UNL1       -0.2481
     18 C          61.8039   87.0739    9.1428 C.3     1  UNL1        0.1022
     19 C          60.7804   87.1714    8.0505 C.3     1  UNL1        0.0700
     20 C          59.8715   88.3626    7.9785 C.3     1  UNL1        0.2001
     21 O          59.9862   89.4562    8.9988 O.3     1  UNL1       -0.4749
     22 C          61.0096   89.3587   10.0910 C.ar    1  UNL1        0.1632
     23 C          61.1243   90.4522   11.1112 C.ar    1  UNL1        0.1735
     24 F          60.2154   91.6434   11.0392 F       1  UNL1       -0.2010
     25 C          62.1477   90.3547   12.2035 C.ar    1  UNL1        0.0328
     26 C          63.0566   89.1636   12.2755 C.ar    1  UNL1        0.0022
     27 C          62.9419   88.0700   11.2553 C.ar    1  UNL1        0.0005
     28 C          61.9185   88.1676   10.1630 C.ar    1  UNL1        0.0319
     29 C          58.7928   89.2852    7.4937 C.3     1  UNL1        0.2357
     30 F          58.7779   89.7354    6.0630 F       1  UNL1       -0.2303
     31 C          59.3822   87.5894    6.7899 C.3     1  UNL1        0.2357
     32 F          59.0202   86.1410    6.9347 F       1  UNL1       -0.2303
@<TRIPOS>BOND
     1     7     8    1
     2     8     9   ar
     3     9    10   ar
     4    10    11   ar
     5    11     1    1
     6     1     2   am
     7     2     3    2
     8     2     4   am
     9    18     4    1
    10    18    19    1
    11    19    20    1
    12    20    29    1
    13    29    30    1
    14    20    31    1
    15    31    32    1
    16    20    21    1
    17    21    22    1
    18    22    23   ar
    19    23    24    1
    20    23    25   ar
    21    25    26   ar
    22    26    27   ar
    23    27    28   ar
    24    11    12   ar
    25    12    13   ar
    26    13    14   ar
    27    14    15   ar
    28    15    16   ar
    29    16    17   ar
    30    17     8   ar
    31    15    10   ar
    32    28    18    1
    33    28    22   ar
    34     1     5    1
    35     4     6    1
@<TRIPOS>MOLECULE
*****
 32 35 0 0 0
SMALL
GASTEIGER

@<TRIPOS>ATOM
      1 N          62.3899   85.9778    8.8721 N.am    1  UNL1       -0.2683
      2 C          62.3770   85.1900   10.1486 C.2     1  UNL1        0.3047
      3 O          61.3281   85.4604   11.1862 O.2     1  UNL1       -0.2525
      4 N          63.4129   84.1317   10.3872 N.am    1  UNL1       -0.2863
      5 H          63.0783   85.8004    8.1911 H       1  UNL1        0.1564
      6 H          64.1013   83.9543    9.7062 H       1  UNL1        0.1512
      7 C          63.3423   89.8583   12.5170 C.3     1  UNL1        0.0521
      8 C          62.3272   89.6819   11.4268 C.ar    1  UNL1        0.0594
      9 C          62.3481   88.4472   10.5752 C.ar    1  UNL1        0.0160
     10 C          61.3331   88.2708    9.4850 C.ar    1  UNL1        0.0162
     11 C          61.3540   87.0360    8.6335 C.ar    1  UNL1        0.0516
     12 C          60.3389   86.8596    7.5433 C.ar    1  UNL1        0.0147
     13 C          59.3030   87.9179    7.3046 C.ar    1  UNL1        0.0013
     14 C          59.2821   89.1526    8.1561 C.ar    1  UNL1        0.0016
     15 C          60.2971   89.3290    9.2463 C.ar    1  UNL1        0.0204
     16 C          60.2763   90.5636   10.0979 C.ar    1  UNL1        0.0984
     17 N          61.2913   90.7401   11.1881 N.ar    1  UNL1       -0.2481
     18 C          63.4000   83.3439   11.6636 C.3     1  UNL1        0.1022
     19 C          63.1178   81.8710   11.6330 C.3     1  UNL1        0.0700
     20 C          63.1049   81.0832   12.9095 C.3     1  UNL1        0.2001
     21 O          63.3741   81.7683   14.2164 O.3     1  UNL1       -0.4749
     22 C          63.6563   83.2412   14.2470 C.ar    1  UNL1        0.1632
     23 C          63.9255   83.9263   15.5539 C.ar    1  UNL1        0.1735
     24 F          63.9126   83.1385   16.8304 F       1  UNL1       -0.2010
     25 C          64.2077   85.3992   15.5845 C.ar    1  UNL1        0.0328
     26 C          64.2207   86.1870   14.3081 C.ar    1  UNL1        0.0022
     27 C          63.9514   85.5019   13.0012 C.ar    1  UNL1        0.0005
     28 C          63.6692   84.0290   12.9706 C.ar    1  UNL1        0.0319
     29 C          62.9838   79.9168   13.8447 C.3     1  UNL1        0.2357
     30 F          61.9854   78.8326   13.5662 F       1  UNL1       -0.2303
     31 C          62.7936   79.9930   11.9273 C.3     1  UNL1        0.2357
     32 F          62.8650   80.2677   10.4544 F       1  UNL1       -0.2303
@<TRIPOS>BOND
     1     7     8    1
     2     8     9   ar
     3     9    10   ar
     4    10    11   ar
     5    11     1    1
     6     1     2   am
     7     2     3    2
     8     2     4   am
     9    18     4    1
    10    18    19    1
    11    19    20    1
    12    20    29    1
    13    29    30    1
    14    20    31    1
    15    31    32    1
    16    20    21    1
    17    21    22    1
    18    22    23   ar
    19    23    24    1
    20    23    25   ar
    21    25    26   ar
    22    26    27   ar
    23    27    28   ar
    24    11    12   ar
    25    12    13   ar
    26    13    14   ar
    27    14    15   ar
    28    15    16   ar
    29    16    17   ar
    30    17     8   ar
    31    15    10   ar
    32    28    18    1
    33    28    22   ar
    34     1     5    1
    35     4     6    1
@<TRIPOS>MOLECULE
*****
 32 35 0 0 0
SMALL
GASTEIGER

@<TRIPOS>ATOM
      1 N          62.0416   86.5065   11.5440 N.am    1  UNL1       -0.2683
      2 C          62.9016   87.6104   12.0844 C.2     1  UNL1        0.3047
      3 O          64.2425   87.2944   12.6777 O.2     1  UNL1       -0.2525
      4 N          62.4205   89.0301   12.0315 N.am    1  UNL1       -0.2863
      5 H          61.1615   86.7138   11.1545 H       1  UNL1        0.1564
      6 H          61.5404   89.2375   11.6421 H       1  UNL1        0.1512
      7 C          62.3596   85.2250   16.7886 C.3     1  UNL1        0.0521
      8 C          62.6408   84.4805   15.5172 C.ar    1  UNL1        0.0594
      9 C          62.4411   85.1558   14.1928 C.ar    1  UNL1        0.0160
     10 C          62.7224   84.4113   12.9213 C.ar    1  UNL1        0.0162
     11 C          62.5227   85.0867   11.5969 C.ar    1  UNL1        0.0516
     12 C          62.8039   84.3422   10.3254 C.ar    1  UNL1        0.0147
     13 C          63.2850   82.9224   10.3784 C.ar    1  UNL1        0.0013
     14 C          63.4847   82.2471   11.7027 C.ar    1  UNL1        0.0016
     15 C          63.2034   82.9916   12.9742 C.ar    1  UNL1        0.0204
     16 C          63.4032   82.3163   14.2986 C.ar    1  UNL1        0.0984
     17 N          63.1219   83.0607   15.5701 N.ar    1  UNL1       -0.2481
     18 C          63.2805   90.1339   12.5719 C.3     1  UNL1        0.1022
     19 C          63.9775   91.0709   11.6306 C.3     1  UNL1        0.0700
     20 C          64.8375   92.1748   12.1711 C.3     1  UNL1        0.2001
     21 O          65.0003   92.3416   13.6529 O.3     1  UNL1       -0.4749
     22 C          64.3032   91.4046   14.5942 C.ar    1  UNL1        0.1632
     23 C          64.4661   91.5713   16.0759 C.ar    1  UNL1        0.1735
     24 F          65.3260   92.6752   16.6164 F       1  UNL1       -0.2010
     25 C          63.7690   90.6343   17.0172 C.ar    1  UNL1        0.0328
     26 C          62.9091   89.5305   16.4768 C.ar    1  UNL1        0.0022
     27 C          62.7462   89.3637   14.9951 C.ar    1  UNL1        0.0005
     28 C          63.4433   90.3008   14.0538 C.ar    1  UNL1        0.0319
     29 C          65.7511   93.3641   12.2004 C.3     1  UNL1        0.2357
     30 F          66.2230   93.9152   13.5132 F       1  UNL1       -0.2303
     31 C          64.9920   92.4210   10.6995 C.3     1  UNL1        0.2357
     32 F          66.2450   93.0553   10.1727 F       1  UNL1       -0.2303
@<TRIPOS>BOND
     1     7     8    1
     2     8     9   ar
     3     9    10   ar
     4    10    11   ar
     5    11     1    1
     6     1     2   am
     7     2     3    2
     8     2     4   am
     9    18     4    1
    10    18    19    1
    11    19    20    1
    12    20    29    1
    13    29    30    1
    14    20    31    1
    15    31    32    1
    16    20    21    1
    17    21    22    1
    18    22    23   ar
    19    23    24    1
    20    23    25   ar
    21    25    26   ar
    22    26    27   ar
    23    27    28   ar
    24    11    12   ar
    25    12    13   ar
    26    13    14   ar
    27    14    15   ar
    28    15    16   ar
    29    16    17   ar
    30    17     8   ar
    31    15    10   ar
    32    28    18    1
    33    28    22   ar
    34     1     5    1
    35     4     6    1
@<TRIPOS>MOLECULE
*****
 32 35 0 0 0
SMALL
GASTEIGER

@<TRIPOS>ATOM
      1 N          62.8496   89.4929   13.1328 N.am    1  UNL1       -0.2683
      2 C          63.1931   88.0404   12.9831 C.2     1  UNL1        0.3047
      3 O          64.2797   87.4363   13.8224 O.2     1  UNL1       -0.2525
      4 N          62.4499   87.1920   11.9942 N.am    1  UNL1       -0.2863
      5 H          62.1365   89.8894   12.5820 H       1  UNL1        0.1564
      6 H          61.7368   87.5885   11.4434 H       1  UNL1        0.1512
      7 C          66.1163   92.6739   10.2242 C.3     1  UNL1        0.0521
      8 C          65.8570   92.5149   11.6931 C.ar    1  UNL1        0.0594
      9 C          64.8546   91.5076   12.1730 C.ar    1  UNL1        0.0160
     10 C          64.5953   91.3486   13.6418 C.ar    1  UNL1        0.0162
     11 C          63.5928   90.3412   14.1217 C.ar    1  UNL1        0.0516
     12 C          63.3335   90.1822   15.5906 C.ar    1  UNL1        0.0147
     13 C          64.0767   91.0307   16.5795 C.ar    1  UNL1        0.0013
     14 C          65.0792   92.0380   16.0996 C.ar    1  UNL1        0.0016
     15 C          65.3384   92.1969   14.6307 C.ar    1  UNL1        0.0204
     16 C          66.3409   93.2043   14.1508 C.ar    1  UNL1        0.0984
     17 N          66.6002   93.3632   12.6820 N.ar    1  UNL1       -0.2481
     18 C          62.7934   85.7396   11.8446 C.3     1  UNL1        0.1022
     19 C          63.1718   85.1930   10.4999 C.3     1  UNL1        0.0700
     20 C          63.5152   83.7405   10.3503 C.3     1  UNL1        0.2001
     21 O          63.4803   82.8346   11.5453 O.3     1  UNL1       -0.4749
     22 C          63.1020   83.3812   12.8900 C.ar    1  UNL1        0.1632
     23 C          63.0671   82.4753   14.0850 C.ar    1  UNL1        0.1735
     24 F          63.4106   81.0228   13.9354 F       1  UNL1       -0.2010
     25 C          62.6887   83.0219   15.4297 C.ar    1  UNL1        0.0328
     26 C          62.3453   84.4743   15.5793 C.ar    1  UNL1        0.0022
     27 C          62.3802   85.3802   14.3843 C.ar    1  UNL1        0.0005
     28 C          62.7585   84.8336   13.0396 C.ar    1  UNL1        0.0319
     29 C          63.9196   82.4467    9.7081 C.3     1  UNL1        0.2357
     30 F          63.4644   81.1435   10.2951 F       1  UNL1       -0.2303
     31 C          63.6906   84.1971    8.9322 C.3     1  UNL1        0.2357
     32 F          63.3126   85.5953    8.5424 F       1  UNL1       -0.2303
@<TRIPOS>BOND
     1     7     8    1
     2     8     9   ar
     3     9    10   ar
     4    10    11   ar
     5    11     1    1
     6     1     2   am
     7     2     3    2
     8     2     4   am
     9    18     4    1
    10    18    19    1
    11    19    20    1
    12    20    29    1
    13    29    30    1
    14    20    31    1
    15    31    32    1
    16    20    21    1
    17    21    22    1
    18    22    23   ar
    19    23    24    1
    20    23    25   ar
    21    25    26   ar
    22    26    27   ar
    23    27    28   ar
    24    11    12   ar
    25    12    13   ar
    26    13    14   ar
    27    14    15   ar
    28    15    16   ar
    29    16    17   ar
    30    17     8   ar
    31    15    10   ar
    32    28    18    1
    33    28    22   ar
    34     1     5    1
    35     4     6    1
