@<TRIPOS>MOLECULE
*****
 14 15 0 0 0
SMALL
GASTEIGER

@<TRIPOS>ATOM
      1 C          66.3021   93.4815   10.9115 C.2     1  UNL1        0.1898
      2 N          65.0983   92.5866   10.9152 N.2     1  UNL1       -0.2199
      3 C          64.9354   92.0344   12.3003 C.2     1  UNL1        0.1003
      4 C          63.9251   91.0991   12.8956 C.2     1  UNL1        0.0569
      5 C          64.0179   90.7173   14.3431 C.2     1  UNL1        0.1364
      6 C          65.1211   91.2708   15.1955 C.2     1  UNL1        0.0172
      7 C          66.1314   92.2062   14.6003 C.3     1  UNL1        0.0765
      8 C          66.0386   92.5880   13.1527 C.2     1  UNL1        0.0833
      9 N          66.8832   93.4823   12.2944 N.2     1  UNL1       -0.2238
     10 O          63.0076   89.7819   14.9384 O.2     1  UNL1       -0.4717
     11 C          63.1323   89.3564   16.3714 C.3     1  UNL1        0.2525
     12 S          66.8318   94.2419    9.7321 S.3     1  UNL1       -0.0757
     13 C          68.5617   92.3561    9.2838 C.3     1  UNL1        0.0130
     14 C          68.0073   93.7129    8.9650 C.3     1  UNL1        0.0652
@<TRIPOS>BOND
     1    13    14    1
     2    14    12    1
     3    12     1    1
     4     1     2    2
     5     2     3    1
     6     3     4    2
     7     4     5    1
     8     5    10    1
     9    10    11    1
    10     5     6    2
    11     6     7    1
    12     7     8    1
    13     8     9    2
    14     9     1    1
    15     8     3    1
@<TRIPOS>MOLECULE
*****
 14 15 0 0 0
SMALL
GASTEIGER

@<TRIPOS>ATOM
      1 C          61.0862   87.1199   10.2682 C.2     1  UNL1        0.1898
      2 N          61.3270   86.4510   11.5891 N.2     1  UNL1       -0.2199
      3 C          62.2683   85.3051   11.3636 C.2     1  UNL1        0.1003
      4 C          62.8590   84.2924   12.2993 C.2     1  UNL1        0.0569
      5 C          63.7906   83.2403   11.7747 C.2     1  UNL1        0.1364
      6 C          64.1314   83.2009   10.3145 C.2     1  UNL1        0.0172
      7 C          63.5407   84.2135    9.3788 C.3     1  UNL1        0.0765
      8 C          62.6091   85.2656    9.9034 C.2     1  UNL1        0.0833
      9 N          61.8786   86.3872    9.2264 N.2     1  UNL1       -0.2238
     10 O          64.3813   82.2276   12.7104 O.2     1  UNL1       -0.4717
     11 C          63.5129   81.1577   13.3031 C.3     1  UNL1        0.2525
     12 S          60.2072   88.3120   10.0309 S.3     1  UNL1       -0.0757
     13 C          59.3701   88.4367    7.5746 C.3     1  UNL1        0.0130
     14 C          60.2056   88.9878    8.6918 C.3     1  UNL1        0.0652
@<TRIPOS>BOND
     1    13    14    1
     2    14    12    1
     3    12     1    1
     4     1     2    2
     5     2     3    1
     6     3     4    2
     7     4     5    1
     8     5    10    1
     9    10    11    1
    10     5     6    2
    11     6     7    1
    12     7     8    1
    13     8     9    2
    14     9     1    1
    15     8     3    1
@<TRIPOS>MOLECULE
*****
 14 15 0 0 0
SMALL
GASTEIGER

@<TRIPOS>ATOM
      1 C          65.8650   92.5304   13.7250 C.2     1  UNL1        0.1898
      2 N          65.2436   91.2501   14.1991 N.2     1  UNL1       -0.2199
      3 C          64.3686   90.7247   13.0999 C.2     1  UNL1        0.1003
      4 C          63.5088   89.4996   13.0002 C.2     1  UNL1        0.0569
      5 C          62.7297   89.2301   11.7472 C.2     1  UNL1        0.1364
      6 C          62.8102   90.1856   10.5937 C.2     1  UNL1        0.0172
      7 C          63.6700   91.4107   10.6934 C.3     1  UNL1        0.0765
      8 C          64.4491   91.6803   11.9464 C.2     1  UNL1        0.0833
      9 N          65.3739   92.7962   12.3328 N.2     1  UNL1       -0.2238
     10 O          61.8699   88.0049   11.6475 O.2     1  UNL1       -0.4717
     11 C          61.4401   87.4977   10.3029 C.3     1  UNL1        0.2525
     12 S          66.8112   93.3934   14.5060 S.3     1  UNL1       -0.0757
     13 C          68.6163   92.4227   16.1026 C.3     1  UNL1        0.0130
     14 C          67.2412   92.9799   15.8823 C.3     1  UNL1        0.0652
@<TRIPOS>BOND
     1    13    14    1
     2    14    12    1
     3    12     1    1
     4     1     2    2
     5     2     3    1
     6     3     4    2
     7     4     5    1
     8     5    10    1
     9    10    11    1
    10     5     6    2
    11     6     7    1
    12     7     8    1
    13     8     9    2
    14     9     1    1
    15     8     3    1
@<TRIPOS>MOLECULE
*****
 14 15 0 0 0
SMALL
GASTEIGER

@<TRIPOS>ATOM
      1 C          65.8970   93.4749   11.1817 C.2     1  UNL1        0.1898
      2 N          66.1139   92.9483   12.5693 N.2     1  UNL1       -0.2199
      3 C          65.1495   91.8215   12.7936 C.2     1  UNL1        0.1003
      4 C          64.9066   90.9281   13.9737 C.2     1  UNL1        0.0569
      5 C          63.8507   89.8650   13.9048 C.2     1  UNL1        0.1364
      6 C          63.0377   89.6953   12.6557 C.2     1  UNL1        0.0172
      7 C          63.2806   90.5886   11.4755 C.3     1  UNL1        0.0765
      8 C          64.3365   91.6517   11.5444 C.2     1  UNL1        0.0833
      9 N          64.7985   92.6736   10.5483 N.2     1  UNL1       -0.2238
     10 O          63.6077   88.9716   15.0850 O.2     1  UNL1       -0.4717
     11 C          63.1910   89.5620   16.3994 C.3     1  UNL1        0.2525
     12 S          66.6469   94.6045   10.5401 S.3     1  UNL1       -0.0757
     13 C          68.2711   92.9675    9.3435 C.3     1  UNL1        0.0130
     14 C          67.6383   94.3233    9.4502 C.3     1  UNL1        0.0652
@<TRIPOS>BOND
     1    13    14    1
     2    14    12    1
     3    12     1    1
     4     1     2    2
     5     2     3    1
     6     3     4    2
     7     4     5    1
     8     5    10    1
     9    10    11    1
    10     5     6    2
    11     6     7    1
    12     7     8    1
    13     8     9    2
    14     9     1    1
    15     8     3    1
@<TRIPOS>MOLECULE
*****
 14 15 0 0 0
SMALL
GASTEIGER

@<TRIPOS>ATOM
      1 C          63.2087   84.1564   12.9230 C.2     1  UNL1        0.1898
      2 N          62.1168   85.1589   12.6934 N.2     1  UNL1       -0.2199
      3 C          62.0417   85.4336   11.2207 C.2     1  UNL1        0.1003
      4 C          61.1564   86.3344   10.4116 C.2     1  UNL1        0.0569
      5 C          61.3167   86.4024    8.9217 C.2     1  UNL1        0.1364
      6 C          62.3622   85.5696    8.2410 C.2     1  UNL1        0.0172
      7 C          63.2475   84.6688    9.0502 C.3     1  UNL1        0.0765
      8 C          63.0872   84.6008   10.5400 C.2     1  UNL1        0.0833
      9 N          63.8084   83.8114   11.5921 N.2     1  UNL1       -0.2238
     10 O          60.4314   87.3033    8.1125 O.2     1  UNL1       -0.4717
     11 C          59.0565   86.8491    7.7208 C.3     1  UNL1        0.2525
     12 S          63.6273   83.5970   14.2503 S.3     1  UNL1       -0.0757
     13 C          64.7398   85.8428   14.9347 C.3     1  UNL1        0.0130
     14 C          64.1668   84.5089   15.3120 C.3     1  UNL1        0.0652
@<TRIPOS>BOND
     1    13    14    1
     2    14    12    1
     3    12     1    1
     4     1     2    2
     5     2     3    1
     6     3     4    2
     7     4     5    1
     8     5    10    1
     9    10    11    1
    10     5     6    2
    11     6     7    1
    12     7     8    1
    13     8     9    2
    14     9     1    1
    15     8     3    1
@<TRIPOS>MOLECULE
*****
 14 15 0 0 0
SMALL
GASTEIGER

@<TRIPOS>ATOM
      1 C          62.1902   88.6933   10.7437 C.2     1  UNL1        0.1898
      2 N          62.6926   90.1055   10.6867 N.2     1  UNL1       -0.2199
      3 C          63.4837   90.3669   11.9340 C.2     1  UNL1        0.1003
      4 C          64.2145   91.5821   12.4229 C.2     1  UNL1        0.0569
      5 C          64.9319   91.5466   13.7397 C.2     1  UNL1        0.1364
      6 C          64.9185   90.2959   14.5676 C.2     1  UNL1        0.0172
      7 C          64.1877   89.0807   14.0787 C.3     1  UNL1        0.0765
      8 C          63.4703   89.1162   12.7620 C.2     1  UNL1        0.0833
      9 N          62.6709   88.0819   12.0263 N.2     1  UNL1       -0.2238
     10 O          65.6628   92.7619   14.2286 O.2     1  UNL1       -0.4717
     11 C          67.1599   92.8175   14.1534 C.3     1  UNL1        0.2525
     12 S          61.3540   88.0122    9.7012 S.3     1  UNL1       -0.0757
     13 C          62.5554   85.8849    8.8172 C.3     1  UNL1        0.0130
     14 C          61.4116   86.5209    9.5502 C.3     1  UNL1        0.0652
@<TRIPOS>BOND
     1    13    14    1
     2    14    12    1
     3    12     1    1
     4     1     2    2
     5     2     3    1
     6     3     4    2
     7     4     5    1
     8     5    10    1
     9    10    11    1
    10     5     6    2
    11     6     7    1
    12     7     8    1
    13     8     9    2
    14     9     1    1
    15     8     3    1
@<TRIPOS>MOLECULE
*****
 14 15 0 0 0
SMALL
GASTEIGER

@<TRIPOS>ATOM
      1 C          63.3561   83.4800   12.6507 C.2     1  UNL1        0.1898
      2 N          62.3796   84.6143   12.7495 N.2     1  UNL1       -0.2199
      3 C          62.2270   85.2150   11.3835 C.2     1  UNL1        0.1003
      4 C          61.3988   86.3582   10.8766 C.2     1  UNL1        0.0569
      5 C          61.4526   86.7383    9.4266 C.2     1  UNL1        0.1364
      6 C          62.3347   85.9751    8.4835 C.2     1  UNL1        0.0172
      7 C          63.1630   84.8318    8.9904 C.3     1  UNL1        0.0765
      8 C          63.1091   84.4518   10.4404 C.2     1  UNL1        0.0833
      9 N          63.8069   83.3795   11.2236 N.2     1  UNL1       -0.2238
     10 O          60.6244   87.8815    8.9196 O.2     1  UNL1       -0.4717
     11 C          59.4556   87.6185    8.0169 C.3     1  UNL1        0.2525
     12 S          63.8031   82.6005   13.7806 S.3     1  UNL1       -0.0757
     13 C          61.9543   80.7751   13.7826 C.3     1  UNL1        0.0130
     14 C          63.4054   81.1545   13.8081 C.3     1  UNL1        0.0652
@<TRIPOS>BOND
     1    13    14    1
     2    14    12    1
     3    12     1    1
     4     1     2    2
     5     2     3    1
     6     3     4    2
     7     4     5    1
     8     5    10    1
     9    10    11    1
    10     5     6    2
    11     6     7    1
    12     7     8    1
    13     8     9    2
    14     9     1    1
    15     8     3    1
@<TRIPOS>MOLECULE
*****
 14 15 0 0 0
SMALL
GASTEIGER

@<TRIPOS>ATOM
      1 C          63.6234   85.1877   15.2726 C.2     1  UNL1        0.1898
      2 N          64.1629   86.1643   14.2700 N.2     1  UNL1       -0.2199
      3 C          63.9957   87.5451   14.8315 C.2     1  UNL1        0.1003
      4 C          64.3457   88.8987   14.2882 C.2     1  UNL1        0.0569
      5 C          64.0529   90.1292   15.0945 C.2     1  UNL1        0.1364
      6 C          63.4100   90.0060   16.4442 C.2     1  UNL1        0.0172
      7 C          63.0600   88.6524   16.9875 C.3     1  UNL1        0.0765
      8 C          63.3528   87.4220   16.1812 C.2     1  UNL1        0.0833
      9 N          63.1228   85.9650   16.4538 N.2     1  UNL1       -0.2238
     10 O          64.4029   91.4828   14.5512 O.2     1  UNL1       -0.4717
     11 C          64.7037   91.6502   13.0912 C.3     1  UNL1        0.2525
     12 S          63.5904   83.6958   15.1208 S.3     1  UNL1       -0.0757
     13 C          61.9876   81.8020   14.3498 C.3     1  UNL1        0.0130
     14 C          62.7365   83.0687   14.0590 C.3     1  UNL1        0.0652
@<TRIPOS>BOND
     1    13    14    1
     2    14    12    1
     3    12     1    1
     4     1     2    2
     5     2     3    1
     6     3     4    2
     7     4     5    1
     8     5    10    1
     9    10    11    1
    10     5     6    2
    11     6     7    1
    12     7     8    1
    13     8     9    2
    14     9     1    1
    15     8     3    1
@<TRIPOS>MOLECULE
*****
 14 15 0 0 0
SMALL
GASTEIGER

@<TRIPOS>ATOM
      1 C          62.2200   86.5909   11.1611 C.2     1  UNL1        0.1898
      2 N          61.9685   85.1231   10.9814 N.2     1  UNL1       -0.2199
      3 C          62.6216   84.3980   12.1205 C.2     1  UNL1        0.1003
      4 C          62.7044   82.9410   12.4672 C.2     1  UNL1        0.0569
      5 C          63.4423   82.5037   13.6977 C.2     1  UNL1        0.1364
      6 C          64.0975   83.5233   14.5815 C.2     1  UNL1        0.0172
      7 C          64.0147   84.9803   14.2347 C.3     1  UNL1        0.0765
      8 C          63.2768   85.4177   13.0043 C.2     1  UNL1        0.0833
      9 N          63.0285   86.7729   12.4113 N.2     1  UNL1       -0.2238
     10 O          63.5251   81.0466   14.0445 O.2     1  UNL1       -0.4717
     11 C          62.4515   80.1045   13.5864 C.3     1  UNL1        0.2525
     12 S          61.7461   87.6847   10.2505 S.3     1  UNL1       -0.0757
     13 C          59.8717   86.9163    8.6237 C.3     1  UNL1        0.0130
     14 C          60.3134   87.7241    9.8079 C.3     1  UNL1        0.0652
@<TRIPOS>BOND
     1    13    14    1
     2    14    12    1
     3    12     1    1
     4     1     2    2
     5     2     3    1
     6     3     4    2
     7     4     5    1
     8     5    10    1
     9    10    11    1
    10     5     6    2
    11     6     7    1
    12     7     8    1
    13     8     9    2
    14     9     1    1
    15     8     3    1
