@<TRIPOS>MOLECULE
*****
 32 35 0 0 0
SMALL
GASTEIGER

@<TRIPOS>ATOM
      1 N          62.5437   85.9765    9.0592 N.am    1  UNL1       -0.2683
      2 C          62.4589   85.1427   10.3033 C.2     1  UNL1        0.3047
      3 O          61.3251   85.3433   11.2647 O.2     1  UNL1       -0.2525
      4 N          63.5078   84.1084   10.5860 N.am    1  UNL1       -0.2863
      5 H          63.2879   85.8448    8.4282 H       1  UNL1        0.1564
      6 H          64.2520   83.9768    9.9550 H       1  UNL1        0.1512
      7 C          63.3598   89.9553   12.6303 C.3     1  UNL1        0.0521
      8 C          62.3690   89.7363   11.5256 C.ar    1  UNL1        0.0594
      9 C          62.4273   88.4831   10.7035 C.ar    1  UNL1        0.0160
     10 C          61.4365   88.2641    9.5987 C.ar    1  UNL1        0.0162
     11 C          61.4948   87.0108    8.7766 C.ar    1  UNL1        0.0516
     12 C          60.5041   86.7918    7.6718 C.ar    1  UNL1        0.0147
     13 C          59.4551   87.8262    7.3891 C.ar    1  UNL1        0.0013
     14 C          59.3969   89.0794    8.2113 C.ar    1  UNL1        0.0016
     15 C          60.3876   89.2984    9.3160 C.ar    1  UNL1        0.0204
     16 C          60.3294   90.5516   10.1381 C.ar    1  UNL1        0.0984
     17 N          61.3201   90.7706   11.2429 N.ar    1  UNL1       -0.2481
     18 C          63.4230   83.2747   11.8300 C.3     1  UNL1        0.1022
     19 C          63.0993   81.8133   11.7328 C.3     1  UNL1        0.0700
     20 C          63.0144   80.9796   12.9770 C.3     1  UNL1        0.2000
     21 O          63.2532   81.6073   14.3182 O.3     1  UNL1       -0.4772
     22 C          63.5769   83.0687   14.4154 C.ar    1  UNL1        0.1361
     23 C          63.8157   83.6965   15.7566 C.ar    1  UNL1        0.0389
     24 C          64.1393   85.1579   15.8537 C.ar    1  UNL1        0.0327
     25 C          64.2242   85.9916   14.6097 C.ar    1  UNL1        0.1401
     26 F          64.5479   87.4530   14.7069 F       1  UNL1       -0.2042
     27 C          63.9854   85.3639   13.2685 C.ar    1  UNL1        0.0300
     28 C          63.6618   83.9024   13.1713 C.ar    1  UNL1        0.0319
     29 C          62.8236   79.7836   13.8619 C.3     1  UNL1        0.2357
     30 F          61.5194   79.0427   13.8508 F       1  UNL1       -0.2303
     31 C          62.7094   79.9364   11.9431 C.3     1  UNL1        0.2357
     32 F          62.8675   80.2559   10.4861 F       1  UNL1       -0.2303
@<TRIPOS>BOND
     1     7     8    1
     2     8     9   ar
     3     9    10   ar
     4    10    11   ar
     5    11     1    1
     6     1     2   am
     7     2     3    2
     8     2     4   am
     9    18     4    1
    10    18    19    1
    11    19    20    1
    12    20    29    1
    13    29    30    1
    14    20    31    1
    15    31    32    1
    16    20    21    1
    17    21    22    1
    18    22    23   ar
    19    23    24   ar
    20    24    25   ar
    21    25    26    1
    22    25    27   ar
    23    27    28   ar
    24    11    12   ar
    25    12    13   ar
    26    13    14   ar
    27    14    15   ar
    28    15    16   ar
    29    16    17   ar
    30    17     8   ar
    31    15    10   ar
    32    28    18    1
    33    28    22   ar
    34     1     5    1
    35     4     6    1
@<TRIPOS>MOLECULE
*****
 32 35 0 0 0
SMALL
GASTEIGER

@<TRIPOS>ATOM
      1 N          62.7826   90.8914   13.2773 N.am    1  UNL1       -0.2683
      2 C          62.8336   89.5077   12.7004 C.2     1  UNL1        0.3047
      3 O          63.9621   88.5868   13.0588 O.2     1  UNL1       -0.2525
      4 N          61.7561   89.0449   11.7651 N.am    1  UNL1       -0.2863
      5 H          62.0420   91.4958   13.0421 H       1  UNL1        0.1564
      6 H          61.0154   89.6494   11.5298 H       1  UNL1        0.1512
      7 C          66.8021   92.7132   10.1509 C.3     1  UNL1        0.0521
      8 C          66.6054   92.6048   11.6340 C.ar    1  UNL1        0.0594
      9 C          65.3311   92.0337   12.1818 C.ar    1  UNL1        0.0160
     10 C          65.1344   91.9253   13.6649 C.ar    1  UNL1        0.0162
     11 C          63.8601   91.3542   14.2126 C.ar    1  UNL1        0.0516
     12 C          63.6634   91.2458   15.6957 C.ar    1  UNL1        0.0147
     13 C          64.7410   91.7085   16.6310 C.ar    1  UNL1        0.0013
     14 C          66.0152   92.2797   16.0832 C.ar    1  UNL1        0.0016
     15 C          66.2119   92.3881   14.6002 C.ar    1  UNL1        0.0204
     16 C          67.4861   92.9592   14.0524 C.ar    1  UNL1        0.0984
     17 N          67.6829   93.0676   12.5693 N.ar    1  UNL1       -0.2481
     18 C          61.8071   87.6613   11.1882 C.3     1  UNL1        0.1022
     19 C          62.5330   86.5705   11.9184 C.3     1  UNL1        0.0700
     20 C          62.5840   85.1868   11.3414 C.3     1  UNL1        0.2000
     21 O          61.9091   84.8940   10.0343 O.3     1  UNL1       -0.4772
     22 C          61.1832   85.9847    9.3040 C.ar    1  UNL1        0.1361
     23 C          60.5083   85.6919    7.9969 C.ar    1  UNL1        0.0389
     24 C          59.7824   86.7827    7.2666 C.ar    1  UNL1        0.0327
     25 C          59.7314   88.1663    7.8435 C.ar    1  UNL1        0.1401
     26 F          59.0055   89.2571    7.1133 F       1  UNL1       -0.2042
     27 C          60.4063   88.4592    9.1507 C.ar    1  UNL1        0.0300
     28 C          61.1322   87.3684    9.8809 C.ar    1  UNL1        0.0319
     29 C          62.9085   83.7291   11.2017 C.3     1  UNL1        0.2357
     30 F          63.5948   83.2286    9.9653 F       1  UNL1       -0.2303
     31 C          63.3716   84.9734   12.6001 C.3     1  UNL1        0.2357
     32 F          64.5481   84.0428   12.5999 F       1  UNL1       -0.2303
@<TRIPOS>BOND
     1     7     8    1
     2     8     9   ar
     3     9    10   ar
     4    10    11   ar
     5    11     1    1
     6     1     2   am
     7     2     3    2
     8     2     4   am
     9    18     4    1
    10    18    19    1
    11    19    20    1
    12    20    29    1
    13    29    30    1
    14    20    31    1
    15    31    32    1
    16    20    21    1
    17    21    22    1
    18    22    23   ar
    19    23    24   ar
    20    24    25   ar
    21    25    26    1
    22    25    27   ar
    23    27    28   ar
    24    11    12   ar
    25    12    13   ar
    26    13    14   ar
    27    14    15   ar
    28    15    16   ar
    29    16    17   ar
    30    17     8   ar
    31    15    10   ar
    32    28    18    1
    33    28    22   ar
    34     1     5    1
    35     4     6    1
@<TRIPOS>MOLECULE
*****
 32 35 0 0 0
SMALL
GASTEIGER

@<TRIPOS>ATOM
      1 N          62.3640   85.7610    9.1362 N.am    1  UNL1       -0.2683
      2 C          62.3892   85.2815   10.5573 C.2     1  UNL1        0.3047
      3 O          61.3407   85.7459   11.5242 O.2     1  UNL1       -0.2525
      4 N          63.4628   84.3375   11.0114 N.am    1  UNL1       -0.2863
      5 H          63.0521   85.4562    8.5015 H       1  UNL1        0.1564
      6 H          64.1509   84.0327   10.3767 H       1  UNL1        0.1512
      7 C          62.9954   90.2682   12.0580 C.3     1  UNL1        0.0521
      8 C          62.0324   89.8494   10.9870 C.ar    1  UNL1        0.0594
      9 C          62.1429   88.4866   10.3701 C.ar    1  UNL1        0.0160
     10 C          61.1798   88.0678    9.2990 C.ar    1  UNL1        0.0162
     11 C          61.2904   86.7050    8.6821 C.ar    1  UNL1        0.0516
     12 C          60.3273   86.2862    7.6111 C.ar    1  UNL1        0.0147
     13 C          59.2536   87.2302    7.1570 C.ar    1  UNL1        0.0013
     14 C          59.1431   88.5930    7.7739 C.ar    1  UNL1        0.0016
     15 C          60.1062   89.0118    8.8449 C.ar    1  UNL1        0.0204
     16 C          59.9956   90.3745    9.4619 C.ar    1  UNL1        0.0984
     17 N          60.9587   90.7933   10.5329 N.ar    1  UNL1       -0.2481
     18 C          63.4879   83.8580   12.4324 C.3     1  UNL1        0.1022
     19 C          63.7434   84.8286   13.5471 C.3     1  UNL1        0.0700
     20 C          63.7685   84.3490   14.9682 C.3     1  UNL1        0.2000
     21 O          63.5382   82.8989   15.2745 O.3     1  UNL1       -0.4772
     22 C          63.2827   81.9282   14.1598 C.ar    1  UNL1        0.1361
     23 C          63.0523   80.4781   14.4662 C.ar    1  UNL1        0.0389
     24 C          62.7968   79.5074   13.3515 C.ar    1  UNL1        0.0327
     25 C          62.7717   79.9869   11.9304 C.ar    1  UNL1        0.1401
     26 F          62.5162   79.0163   10.8157 F       1  UNL1       -0.2042
     27 C          63.0020   81.4371   11.6241 C.ar    1  UNL1        0.0300
     28 C          63.2575   82.4077   12.7388 C.ar    1  UNL1        0.0319
     29 C          63.8881   84.3765   16.4632 C.3     1  UNL1        0.2357
     30 F          63.8697   85.6867   17.1931 F       1  UNL1       -0.2303
     31 C          64.0404   85.8088   15.1811 C.3     1  UNL1        0.2357
     32 F          64.2842   86.7057   14.0038 F       1  UNL1       -0.2303
@<TRIPOS>BOND
     1     7     8    1
     2     8     9   ar
     3     9    10   ar
     4    10    11   ar
     5    11     1    1
     6     1     2   am
     7     2     3    2
     8     2     4   am
     9    18     4    1
    10    18    19    1
    11    19    20    1
    12    20    29    1
    13    29    30    1
    14    20    31    1
    15    31    32    1
    16    20    21    1
    17    21    22    1
    18    22    23   ar
    19    23    24   ar
    20    24    25   ar
    21    25    26    1
    22    25    27   ar
    23    27    28   ar
    24    11    12   ar
    25    12    13   ar
    26    13    14   ar
    27    14    15   ar
    28    15    16   ar
    29    16    17   ar
    30    17     8   ar
    31    15    10   ar
    32    28    18    1
    33    28    22   ar
    34     1     5    1
    35     4     6    1
@<TRIPOS>MOLECULE
*****
 32 35 0 0 0
SMALL
GASTEIGER

@<TRIPOS>ATOM
      1 N          63.3234   89.7401   13.4004 N.am    1  UNL1       -0.2683
      2 C          63.5815   88.2654   13.4934 C.2     1  UNL1        0.3047
      3 O          64.5537   87.7365   14.5059 O.2     1  UNL1       -0.2525
      4 N          62.8674   87.3196   12.5739 N.am    1  UNL1       -0.2863
      5 H          62.6853   90.0872   12.7358 H       1  UNL1        0.1564
      6 H          62.2293   87.6667   11.9094 H       1  UNL1        0.1512
      7 C          66.6708   92.6238   10.2812 C.3     1  UNL1        0.0521
      8 C          66.3695   92.6123   11.7506 C.ar    1  UNL1        0.0594
      9 C          65.3542   91.6549   12.3005 C.ar    1  UNL1        0.0160
     10 C          65.0529   91.6434   13.7699 C.ar    1  UNL1        0.0162
     11 C          64.0375   90.6860   14.3198 C.ar    1  UNL1        0.0516
     12 C          63.7362   90.6744   15.7892 C.ar    1  UNL1        0.0147
     13 C          64.4503   91.6203   16.7087 C.ar    1  UNL1        0.0013
     14 C          65.4657   92.5777   16.1588 C.ar    1  UNL1        0.0016
     15 C          65.7670   92.5892   14.6894 C.ar    1  UNL1        0.0204
     16 C          66.7823   93.5466   14.1395 C.ar    1  UNL1        0.0984
     17 N          67.0836   93.5581   12.6701 N.ar    1  UNL1       -0.2481
     18 C          63.1255   85.8449   12.6669 C.3     1  UNL1        0.1022
     19 C          63.2882   85.1952   14.0091 C.3     1  UNL1        0.0700
     20 C          63.5464   83.7204   14.1021 C.3     1  UNL1        0.2000
     21 O          63.6418   82.8955   12.8529 O.3     1  UNL1       -0.4772
     22 C          63.4791   83.5452   11.5108 C.ar    1  UNL1        0.1361
     23 C          63.5745   82.7203   10.2617 C.ar    1  UNL1        0.0389
     24 C          63.4119   83.3701    8.9195 C.ar    1  UNL1        0.0327
     25 C          63.1537   84.8447    8.8265 C.ar    1  UNL1        0.1401
     26 F          62.9910   85.4945    7.4843 F       1  UNL1       -0.2042
     27 C          63.0583   85.6696   10.0756 C.ar    1  UNL1        0.0300
     28 C          63.2210   85.0199   11.4178 C.ar    1  UNL1        0.0319
     29 C          63.8022   82.3693   14.7012 C.3     1  UNL1        0.2357
     30 F          63.7479   81.1437   13.8383 F       1  UNL1       -0.2303
     31 C          63.5398   84.0761   15.5593 C.3     1  UNL1        0.2357
     32 F          64.3808   85.2139   16.0574 F       1  UNL1       -0.2303
@<TRIPOS>BOND
     1     7     8    1
     2     8     9   ar
     3     9    10   ar
     4    10    11   ar
     5    11     1    1
     6     1     2   am
     7     2     3    2
     8     2     4   am
     9    18     4    1
    10    18    19    1
    11    19    20    1
    12    20    29    1
    13    29    30    1
    14    20    31    1
    15    31    32    1
    16    20    21    1
    17    21    22    1
    18    22    23   ar
    19    23    24   ar
    20    24    25   ar
    21    25    26    1
    22    25    27   ar
    23    27    28   ar
    24    11    12   ar
    25    12    13   ar
    26    13    14   ar
    27    14    15   ar
    28    15    16   ar
    29    16    17   ar
    30    17     8   ar
    31    15    10   ar
    32    28    18    1
    33    28    22   ar
    34     1     5    1
    35     4     6    1
@<TRIPOS>MOLECULE
*****
 32 35 0 0 0
SMALL
GASTEIGER

@<TRIPOS>ATOM
      1 N          62.9453   86.6575   15.0986 N.am    1  UNL1       -0.2683
      2 C          63.6909   87.8266   14.5263 C.2     1  UNL1        0.3047
      3 O          64.8207   87.5985   13.5664 O.2     1  UNL1       -0.2525
      4 N          63.3067   89.2237   14.9141 N.am    1  UNL1       -0.2863
      5 H          62.2038   86.8072   15.7287 H       1  UNL1        0.1564
      6 H          62.5652   89.3734   15.5442 H       1  UNL1        0.1512
      7 C          61.8392   86.2069    9.8238 C.3     1  UNL1        0.0521
      8 C          62.4039   85.2717   10.8517 C.ar    1  UNL1        0.0594
      9 C          62.5844   85.7336   12.2673 C.ar    1  UNL1        0.0160
     10 C          63.1491   84.7984   13.2952 C.ar    1  UNL1        0.0162
     11 C          63.3295   85.2603   14.7108 C.ar    1  UNL1        0.0516
     12 C          63.8942   84.3251   15.7387 C.ar    1  UNL1        0.0147
     13 C          64.2785   82.9280   15.3509 C.ar    1  UNL1        0.0013
     14 C          64.0980   82.4660   13.9353 C.ar    1  UNL1        0.0016
     15 C          63.5333   83.4012   12.9074 C.ar    1  UNL1        0.0204
     16 C          63.3528   82.9393   11.4918 C.ar    1  UNL1        0.0984
     17 N          62.7881   83.8745   10.4639 N.ar    1  UNL1       -0.2481
     18 C          64.0522   90.3927   14.3419 C.3     1  UNL1        0.1022
     19 C          64.9744   91.1932   15.2129 C.3     1  UNL1        0.0700
     20 C          65.7200   92.3623   14.6405 C.3     1  UNL1        0.2000
     21 O          65.5434   92.7308   13.1973 O.3     1  UNL1       -0.4772
     22 C          64.6212   91.9302   12.3263 C.ar    1  UNL1        0.1361
     23 C          64.4445   92.2987   10.8831 C.ar    1  UNL1        0.0389
     24 C          63.5223   91.4981   10.0121 C.ar    1  UNL1        0.0327
     25 C          62.7767   90.3291   10.5843 C.ar    1  UNL1        0.1401
     26 F          61.8545   89.5286    9.7133 F       1  UNL1       -0.2042
     27 C          62.9534   89.9607   12.0275 C.ar    1  UNL1        0.0300
     28 C          63.8756   90.7612   12.8985 C.ar    1  UNL1        0.0319
     29 C          66.6376   93.5461   14.5599 C.3     1  UNL1        0.2357
     30 F          66.4620   94.5581   13.4668 F       1  UNL1       -0.2303
     31 C          66.2154   92.4050   16.0558 C.3     1  UNL1        0.2357
     32 F          67.4966   93.1140   16.3809 F       1  UNL1       -0.2303
@<TRIPOS>BOND
     1     7     8    1
     2     8     9   ar
     3     9    10   ar
     4    10    11   ar
     5    11     1    1
     6     1     2   am
     7     2     3    2
     8     2     4   am
     9    18     4    1
    10    18    19    1
    11    19    20    1
    12    20    29    1
    13    29    30    1
    14    20    31    1
    15    31    32    1
    16    20    21    1
    17    21    22    1
    18    22    23   ar
    19    23    24   ar
    20    24    25   ar
    21    25    26    1
    22    25    27   ar
    23    27    28   ar
    24    11    12   ar
    25    12    13   ar
    26    13    14   ar
    27    14    15   ar
    28    15    16   ar
    29    16    17   ar
    30    17     8   ar
    31    15    10   ar
    32    28    18    1
    33    28    22   ar
    34     1     5    1
    35     4     6    1
@<TRIPOS>MOLECULE
*****
 32 35 0 0 0
SMALL
GASTEIGER

@<TRIPOS>ATOM
      1 N          61.4754   90.1261   11.3821 N.am    1  UNL1       -0.2683
      2 C          62.8776   90.6572   11.3401 C.2     1  UNL1        0.3047
      3 O          63.8077   90.2331   10.2424 O.2     1  UNL1       -0.2525
      4 N          63.3498   91.6124   12.3959 N.am    1  UNL1       -0.2863
      5 H          60.8649   90.4045   12.1026 H       1  UNL1        0.1564
      6 H          62.7393   91.8908   13.1164 H       1  UNL1        0.1512
      7 C          63.4053   85.2713   12.7805 C.3     1  UNL1        0.0521
      8 C          62.5687   85.7686   11.6390 C.ar    1  UNL1        0.0594
      9 C          62.2043   87.2211   11.5534 C.ar    1  UNL1        0.0160
     10 C          61.3677   87.7184   10.4120 C.ar    1  UNL1        0.0162
     11 C          61.0033   89.1709   10.3263 C.ar    1  UNL1        0.0516
     12 C          60.1667   89.6682    9.1849 C.ar    1  UNL1        0.0147
     13 C          59.6946   88.7130    8.1291 C.ar    1  UNL1        0.0013
     14 C          60.0590   87.2605    8.2148 C.ar    1  UNL1        0.0016
     15 C          60.8956   86.7632    9.3562 C.ar    1  UNL1        0.0204
     16 C          61.2601   85.3107    9.4419 C.ar    1  UNL1        0.0984
     17 N          62.0966   84.8134   10.5833 N.ar    1  UNL1       -0.2481
     18 C          64.7519   92.1435   12.3539 C.3     1  UNL1        0.1022
     19 C          65.3975   92.4532   11.0358 C.3     1  UNL1        0.0700
     20 C          66.7997   92.9843   10.9939 C.3     1  UNL1        0.2000
     21 O          67.5564   93.2056   12.2699 O.3     1  UNL1       -0.4772
     22 C          66.9109   92.8958   13.5880 C.ar    1  UNL1        0.1361
     23 C          67.6676   93.1170   14.8641 C.ar    1  UNL1        0.0389
     24 C          67.0220   92.8073   16.1822 C.ar    1  UNL1        0.0327
     25 C          65.6198   92.2762   16.2242 C.ar    1  UNL1        0.1401
     26 F          64.9743   91.9664   17.5423 F       1  UNL1       -0.2042
     27 C          64.8632   92.0550   14.9481 C.ar    1  UNL1        0.0300
     28 C          65.5087   92.3647   13.6300 C.ar    1  UNL1        0.0319
     29 C          68.0954   93.5008   10.4421 C.3     1  UNL1        0.2357
     30 F          69.0515   92.5614    9.7688 F       1  UNL1       -0.2303
     31 C          66.4930   92.9424    9.5261 C.3     1  UNL1        0.2357
     32 F          66.8152   94.1230    8.6586 F       1  UNL1       -0.2303
@<TRIPOS>BOND
     1     7     8    1
     2     8     9   ar
     3     9    10   ar
     4    10    11   ar
     5    11     1    1
     6     1     2   am
     7     2     3    2
     8     2     4   am
     9    18     4    1
    10    18    19    1
    11    19    20    1
    12    20    29    1
    13    29    30    1
    14    20    31    1
    15    31    32    1
    16    20    21    1
    17    21    22    1
    18    22    23   ar
    19    23    24   ar
    20    24    25   ar
    21    25    26    1
    22    25    27   ar
    23    27    28   ar
    24    11    12   ar
    25    12    13   ar
    26    13    14   ar
    27    14    15   ar
    28    15    16   ar
    29    16    17   ar
    30    17     8   ar
    31    15    10   ar
    32    28    18    1
    33    28    22   ar
    34     1     5    1
    35     4     6    1
@<TRIPOS>MOLECULE
*****
 32 35 0 0 0
SMALL
GASTEIGER

@<TRIPOS>ATOM
      1 N          63.1169   91.2029   12.3318 N.am    1  UNL1       -0.2683
      2 C          62.7945   90.0483   11.4299 C.2     1  UNL1        0.3047
      3 O          63.7111   89.7062   10.2929 O.2     1  UNL1       -0.2525
      4 N          61.5557   89.2360   11.6652 N.am    1  UNL1       -0.2863
      5 H          62.5153   91.4275   13.0781 H       1  UNL1        0.1564
      6 H          60.9542   89.4605   12.4115 H       1  UNL1        0.1512
      7 C          65.2923   92.0670   17.2073 C.3     1  UNL1        0.0521
      8 C          65.6776   92.4602   15.8119 C.ar    1  UNL1        0.0594
      9 C          64.8240   92.0411   14.6519 C.ar    1  UNL1        0.0160
     10 C          65.2093   92.4344   13.2566 C.ar    1  UNL1        0.0162
     11 C          64.3557   92.0153   12.0965 C.ar    1  UNL1        0.0516
     12 C          64.7409   92.4085   10.7012 C.ar    1  UNL1        0.0147
     13 C          65.9798   93.2209   10.4659 C.ar    1  UNL1        0.0013
     14 C          66.8333   93.6400   11.6260 C.ar    1  UNL1        0.0016
     15 C          66.4481   93.2467   13.0213 C.ar    1  UNL1        0.0204
     16 C          67.3016   93.6658   14.1813 C.ar    1  UNL1        0.0984
     17 N          66.9164   93.2726   15.5767 N.ar    1  UNL1       -0.2481
     18 C          61.2335   88.0815   10.7634 C.3     1  UNL1        0.1022
     19 C          60.3194   88.2784    9.5905 C.3     1  UNL1        0.0700
     20 C          59.9971   87.1238    8.6887 C.3     1  UNL1        0.2000
     21 O          60.5889   85.7725    8.9598 O.3     1  UNL1       -0.4772
     22 C          61.5030   85.5756   10.1327 C.ar    1  UNL1        0.1361
     23 C          62.0948   84.2242   10.4039 C.ar    1  UNL1        0.0389
     24 C          63.0089   84.0273   11.5768 C.ar    1  UNL1        0.0327
     25 C          63.3311   85.1818   12.4786 C.ar    1  UNL1        0.1401
     26 F          64.2452   84.9849   13.6515 F       1  UNL1       -0.2042
     27 C          62.7393   86.5332   12.2074 C.ar    1  UNL1        0.0300
     28 C          61.8253   86.7301   11.0345 C.ar    1  UNL1        0.0319
     29 C          59.3969   86.3448    7.5561 C.3     1  UNL1        0.2357
     30 F          60.1344   85.1739    6.9773 F       1  UNL1       -0.2303
     31 C          59.1969   88.2046    8.0242 C.3     1  UNL1        0.2357
     32 F          59.8949   89.3125    7.2925 F       1  UNL1       -0.2303
@<TRIPOS>BOND
     1     7     8    1
     2     8     9   ar
     3     9    10   ar
     4    10    11   ar
     5    11     1    1
     6     1     2   am
     7     2     3    2
     8     2     4   am
     9    18     4    1
    10    18    19    1
    11    19    20    1
    12    20    29    1
    13    29    30    1
    14    20    31    1
    15    31    32    1
    16    20    21    1
    17    21    22    1
    18    22    23   ar
    19    23    24   ar
    20    24    25   ar
    21    25    26    1
    22    25    27   ar
    23    27    28   ar
    24    11    12   ar
    25    12    13   ar
    26    13    14   ar
    27    14    15   ar
    28    15    16   ar
    29    16    17   ar
    30    17     8   ar
    31    15    10   ar
    32    28    18    1
    33    28    22   ar
    34     1     5    1
    35     4     6    1
@<TRIPOS>MOLECULE
*****
 32 35 0 0 0
SMALL
GASTEIGER

@<TRIPOS>ATOM
      1 N          62.9833   89.5530   13.1362 N.am    1  UNL1       -0.2683
      2 C          63.2940   88.0881   13.0490 C.2     1  UNL1        0.3047
      3 O          64.3321   87.4867   13.9494 O.2     1  UNL1       -0.2525
      4 N          62.5666   87.2246   12.0615 N.am    1  UNL1       -0.2863
      5 H          62.3019   89.9477   12.5452 H       1  UNL1        0.1564
      6 H          61.8853   87.6192   11.4705 H       1  UNL1        0.1512
      7 C          66.2579   92.7261   10.2278 C.3     1  UNL1        0.0521
      8 C          65.9848   92.5804   11.6955 C.ar    1  UNL1        0.0594
      9 C          64.9843   91.5713   12.1757 C.ar    1  UNL1        0.0160
     10 C          64.7112   91.4257   13.6435 C.ar    1  UNL1        0.0162
     11 C          63.7107   90.4165   14.1237 C.ar    1  UNL1        0.0516
     12 C          63.4376   90.2709   15.5914 C.ar    1  UNL1        0.0147
     13 C          64.1651   91.1344   16.5789 C.ar    1  UNL1        0.0013
     14 C          65.1655   92.1436   16.0987 C.ar    1  UNL1        0.0016
     15 C          65.4386   92.2892   14.6310 C.ar    1  UNL1        0.0204
     16 C          66.4391   93.2983   14.1507 C.ar    1  UNL1        0.0984
     17 N          66.7122   93.4439   12.6830 N.ar    1  UNL1       -0.2481
     18 C          62.8773   85.7597   11.9744 C.3     1  UNL1        0.1022
     19 C          63.2193   85.1430   10.6505 C.3     1  UNL1        0.0700
     20 C          63.5300   83.6781   10.5634 C.3     1  UNL1        0.2000
     21 O          63.4988   82.8300   11.8002 O.3     1  UNL1       -0.4772
     22 C          63.1568   83.4467   13.1241 C.ar    1  UNL1        0.1361
     23 C          63.1256   82.5986   14.3609 C.ar    1  UNL1        0.0389
     24 C          62.7836   83.2153   15.6847 C.ar    1  UNL1        0.0327
     25 C          62.4729   84.6801   15.7719 C.ar    1  UNL1        0.1401
     26 F          62.1309   85.2968   17.0958 F       1  UNL1       -0.2042
     27 C          62.5041   85.5282   14.5351 C.ar    1  UNL1        0.0300
     28 C          62.8461   84.9115   13.2112 C.ar    1  UNL1        0.0319
     29 C          63.8957   82.3473    9.9758 C.3     1  UNL1        0.2357
     30 F          63.2093   81.1022   10.4538 F       1  UNL1       -0.2303
     31 C          63.6883   84.0640    9.1225 C.3     1  UNL1        0.2357
     32 F          63.3359   85.4516    8.6747 F       1  UNL1       -0.2303
@<TRIPOS>BOND
     1     7     8    1
     2     8     9   ar
     3     9    10   ar
     4    10    11   ar
     5    11     1    1
     6     1     2   am
     7     2     3    2
     8     2     4   am
     9    18     4    1
    10    18    19    1
    11    19    20    1
    12    20    29    1
    13    29    30    1
    14    20    31    1
    15    31    32    1
    16    20    21    1
    17    21    22    1
    18    22    23   ar
    19    23    24   ar
    20    24    25   ar
    21    25    26    1
    22    25    27   ar
    23    27    28   ar
    24    11    12   ar
    25    12    13   ar
    26    13    14   ar
    27    14    15   ar
    28    15    16   ar
    29    16    17   ar
    30    17     8   ar
    31    15    10   ar
    32    28    18    1
    33    28    22   ar
    34     1     5    1
    35     4     6    1
@<TRIPOS>MOLECULE
*****
 32 35 0 0 0
SMALL
GASTEIGER

@<TRIPOS>ATOM
      1 N          62.4194   90.3958   13.6329 N.am    1  UNL1       -0.2683
      2 C          62.6389   89.2251   12.7211 C.2     1  UNL1        0.3047
      3 O          64.0111   88.6380   12.5714 O.2     1  UNL1       -0.2525
      4 N          61.4863   88.6416   11.9589 N.am    1  UNL1       -0.2863
      5 H          61.5188   90.7812   13.7311 H       1  UNL1        0.1564
      6 H          60.5857   89.0269   12.0572 H       1  UNL1        0.1512
      7 C          65.6227   92.7299    9.9531 C.3     1  UNL1        0.0521
      8 C          65.6864   92.5840   11.4446 C.ar    1  UNL1        0.0594
      9 C          64.5974   91.8546   12.1740 C.ar    1  UNL1        0.0160
     10 C          64.6611   91.7088   13.6656 C.ar    1  UNL1        0.0162
     11 C          63.5721   90.9793   14.3950 C.ar    1  UNL1        0.0516
     12 C          63.6357   90.8335   15.8865 C.ar    1  UNL1        0.0147
     13 C          64.7885   91.4170   16.6486 C.ar    1  UNL1        0.0013
     14 C          65.8774   92.1464   15.9192 C.ar    1  UNL1        0.0016
     15 C          65.8138   92.2923   14.4277 C.ar    1  UNL1        0.0204
     16 C          66.9027   93.0217   13.6983 C.ar    1  UNL1        0.0984
     17 N          66.8391   93.1675   12.2067 N.ar    1  UNL1       -0.2481
     18 C          61.7058   87.4710   11.0472 C.3     1  UNL1        0.1022
     19 C          61.1818   87.5060    9.6421 C.3     1  UNL1        0.0700
     20 C          61.4014   86.3353    8.7303 C.3     1  UNL1        0.2000
     21 O          62.1449   85.1296    9.2236 O.3     1  UNL1       -0.4772
     22 C          62.6689   85.0945   10.6287 C.ar    1  UNL1        0.1361
     23 C          63.4124   83.8888   11.1220 C.ar    1  UNL1        0.0389
     24 C          63.9364   83.8537   12.5271 C.ar    1  UNL1        0.0327
     25 C          63.7168   85.0244   13.4388 C.ar    1  UNL1        0.1401
     26 F          64.2408   84.9893   14.8439 F       1  UNL1       -0.2042
     27 C          62.9733   86.2301   12.9455 C.ar    1  UNL1        0.0300
     28 C          62.4494   86.2652   11.5405 C.ar    1  UNL1        0.0319
     29 C          61.3574   85.4803    7.4987 C.3     1  UNL1        0.2357
     30 F          62.5781   84.7228    7.0674 F       1  UNL1       -0.2303
     31 C          60.6426   87.2441    7.8092 C.3     1  UNL1        0.2357
     32 F          60.4355   88.6832    8.1784 F       1  UNL1       -0.2303
@<TRIPOS>BOND
     1     7     8    1
     2     8     9   ar
     3     9    10   ar
     4    10    11   ar
     5    11     1    1
     6     1     2   am
     7     2     3    2
     8     2     4   am
     9    18     4    1
    10    18    19    1
    11    19    20    1
    12    20    29    1
    13    29    30    1
    14    20    31    1
    15    31    32    1
    16    20    21    1
    17    21    22    1
    18    22    23   ar
    19    23    24   ar
    20    24    25   ar
    21    25    26    1
    22    25    27   ar
    23    27    28   ar
    24    11    12   ar
    25    12    13   ar
    26    13    14   ar
    27    14    15   ar
    28    15    16   ar
    29    16    17   ar
    30    17     8   ar
    31    15    10   ar
    32    28    18    1
    33    28    22   ar
    34     1     5    1
    35     4     6    1
