@<TRIPOS>MOLECULE
*****
 39 44 0 0 0
SMALL
GASTEIGER

@<TRIPOS>ATOM
      1 C          66.7843   92.5731   14.7550 C.2     1  UNL1        0.2718
      2 C          66.3312   93.4214   13.6039 C.2     1  UNL1        0.0724
      3 C          65.3585   92.8707   12.6036 C.2     1  UNL1        0.0248
      4 C          64.8390   91.4716   12.7544 C.2     1  UNL1        0.0797
      5 N          63.8797   90.6631   11.9322 N.2     1  UNL1       -0.2413
      6 C          63.7399   89.3151   12.5752 C.ar    1  UNL1        0.1300
      7 C          62.9305   88.1070   12.2077 C.ar    1  UNL1        0.1524
      8 N          62.9940   86.8741   13.0598 N.ar    1  UNL1       -0.2130
      9 C          63.8669   86.8495   14.2793 C.ar    1  UNL1        0.1567
     10 N          64.6764   88.0578   14.6468 N.ar    1  UNL1       -0.2279
     11 C          64.6128   89.2905   13.7947 C.ar    1  UNL1        0.1010
     12 C          65.2921   90.6234   13.9054 C.2     1  UNL1        0.0255
     13 C          66.2648   91.1741   14.9058 C.3     1  UNL1        0.1323
     14 N          62.0574   88.1316   10.9881 N.pl3   1  UNL1       -0.2891
     15 C          61.1565   89.3037   10.7341 C.3     1  UNL1        0.1095
     16 C          60.2836   89.3282    9.5145 C.3     1  UNL1        0.0939
     17 N          60.3116   88.1807    8.5490 N.3     1  UNL1       -0.2695
     18 C          61.2125   87.0086    8.8029 C.3     1  UNL1        0.0939
     19 C          62.0854   86.9840   10.0225 C.3     1  UNL1        0.1095
     20 C          59.4386   88.2052    7.3294 C.3     1  UNL1        0.0769
     21 C          58.6051   89.4153    7.0280 C.3     1  UNL1        0.0437
     22 C          59.0246   90.3642    5.9446 C.ar    1  UNL1       -0.0184
     23 C          58.0106   91.2618    5.2996 C.ar    1  UNL1       -0.0018
     24 C          58.4302   92.2106    4.2162 C.ar    1  UNL1        0.0316
     25 C          59.8639   92.2619    3.7780 C.ar    1  UNL1        0.1674
     26 F          60.2835   93.2107    2.6947 F       1  UNL1       -0.2018
     27 C          60.8779   91.3643    4.4230 C.ar    1  UNL1        0.1671
     28 F          62.3116   91.4156    3.9848 F       1  UNL1       -0.2018
     29 C          60.4583   90.4154    5.5064 C.ar    1  UNL1        0.0277
     30 O          68.4178   92.2075   16.7419 O.2     1  UNL1        0.0411
     31 N          67.7569   93.1239   15.7553 N.pl3   1  UNL1        0.0768
     32 O          68.0687   94.5910   15.7691 O.co2   1  UNL1       -0.5763
     33 C          63.9305   85.6167   15.1314 C.3     1  UNL1        0.1390
     34 N          63.6051   84.2777   14.5388 N.3     1  UNL1       -0.2620
     35 C          62.4091   83.5134   15.0241 C.3     1  UNL1        0.1050
     36 C          62.0837   82.1745   14.4314 C.3     1  UNL1        0.1595
     37 O          62.9542   81.5998   13.3534 O.3     1  UNL1       -0.3508
     38 C          64.1502   82.3642   12.8681 C.3     1  UNL1        0.1595
     39 C          64.4756   83.7031   13.4608 C.3     1  UNL1        0.1050
@<TRIPOS>UNITY_ATOM_ATTR
31 1
charge 1
32 1
charge -1
@<TRIPOS>BOND
     1    30    31    2
     2    31    32    1
     3    31     1    1
     4     1     2    2
     5     2     3    1
     6     3     4    2
     7     4     5    1
     8     5     6    2
     9     6     7   ar
    10     7    14    1
    11    14    15    1
    12    15    16    1
    13    16    17    1
    14    17    20    1
    15    20    21    1
    16    21    22    1
    17    22    23   ar
    18    23    24   ar
    19    24    25   ar
    20    25    26    1
    21    25    27   ar
    22    27    28    1
    23    27    29   ar
    24    17    18    1
    25    18    19    1
    26     7     8   ar
    27     8     9   ar
    28     9    33    1
    29    33    34    1
    30    34    35    1
    31    35    36    1
    32    36    37    1
    33    37    38    1
    34    38    39    1
    35     9    10   ar
    36    10    11   ar
    37    11    12    2
    38    12    13    1
    39    13     1    1
    40    12     4    1
    41    11     6   ar
    42    19    14    1
    43    39    34    1
    44    29    22   ar
@<TRIPOS>MOLECULE
*****
 39 44 0 0 0
SMALL
GASTEIGER

@<TRIPOS>ATOM
      1 C          59.1241   89.6108    6.8808 C.2     1  UNL1        0.2718
      2 C          58.6849   88.1916    7.0876 C.2     1  UNL1        0.0724
      3 C          59.2764   87.3781    8.2004 C.2     1  UNL1        0.0248
      4 C          60.3070   87.9838    9.1064 C.2     1  UNL1        0.0797
      5 N          61.0619   87.4312   10.2788 N.2     1  UNL1       -0.2413
      6 C          61.9677   88.5089   10.7966 C.ar    1  UNL1        0.1300
      7 C          62.9450   88.5379   11.9342 C.ar    1  UNL1        0.1524
      8 N          63.7271   89.7857   12.2193 N.ar    1  UNL1       -0.2130
      9 C          63.5319   91.0044   11.3669 C.ar    1  UNL1        0.1567
     10 N          62.5546   90.9753   10.2294 N.ar    1  UNL1       -0.2279
     11 C          61.7726   89.7276    9.9442 C.ar    1  UNL1        0.1010
     12 C          60.7461   89.4030    8.8996 C.2     1  UNL1        0.0255
     13 C          60.1547   90.2166    7.7868 C.3     1  UNL1        0.1323
     14 N          63.1402   87.3191   12.7867 N.pl3   1  UNL1       -0.2891
     15 C          62.4891   86.0234   12.4030 C.3     1  UNL1        0.1095
     16 C          62.6843   84.8047   13.2555 C.3     1  UNL1        0.0939
     17 N          63.5306   84.8818   14.4916 N.3     1  UNL1       -0.2695
     18 C          64.1816   86.1775   14.8752 C.3     1  UNL1        0.0939
     19 C          63.9864   87.3962   14.0228 C.3     1  UNL1        0.1095
     20 C          63.7258   83.6631   15.3440 C.3     1  UNL1        0.0769
     21 C          64.4133   82.4553   14.7796 C.3     1  UNL1        0.0437
     22 C          63.9688   81.8850   13.4653 C.ar    1  UNL1       -0.0184
     23 C          63.0437   80.7046   13.4344 C.ar    1  UNL1       -0.0018
     24 C          62.5993   80.1343   12.1202 C.ar    1  UNL1        0.0316
     25 C          63.0798   80.7444   10.8369 C.ar    1  UNL1        0.1674
     26 F          62.6353   80.1742    9.5226 F       1  UNL1       -0.2018
     27 C          64.0048   81.9248   10.8678 C.ar    1  UNL1        0.1671
     28 F          64.4854   82.5350    9.5845 F       1  UNL1       -0.2018
     29 C          64.4493   82.4952   12.1821 C.ar    1  UNL1        0.0277
     30 O          59.4304   91.1552    4.8142 O.2     1  UNL1        0.0411
     31 N          58.5326   90.4243    5.7680 N.pl3   1  UNL1        0.0768
     32 O          57.0434   90.5070    5.6089 O.co2   1  UNL1       -0.5763
     33 C          64.3141   92.2522   11.6521 C.3     1  UNL1        0.1390
     34 N          65.7937   92.1731   11.8851 N.3     1  UNL1       -0.2620
     35 C          66.3245   91.9700   13.2733 C.3     1  UNL1        0.1050
     36 C          67.8041   91.8908   13.5063 C.3     1  UNL1        0.1595
     37 O          68.7530   92.0148   12.3512 O.3     1  UNL1       -0.3508
     38 C          68.2223   92.2180   10.9631 C.3     1  UNL1        0.1595
     39 C          66.7426   92.2971   10.7300 C.3     1  UNL1        0.1050
@<TRIPOS>UNITY_ATOM_ATTR
31 1
charge 1
32 1
charge -1
@<TRIPOS>BOND
     1    30    31    2
     2    31    32    1
     3    31     1    1
     4     1     2    2
     5     2     3    1
     6     3     4    2
     7     4     5    1
     8     5     6    2
     9     6     7   ar
    10     7    14    1
    11    14    15    1
    12    15    16    1
    13    16    17    1
    14    17    20    1
    15    20    21    1
    16    21    22    1
    17    22    23   ar
    18    23    24   ar
    19    24    25   ar
    20    25    26    1
    21    25    27   ar
    22    27    28    1
    23    27    29   ar
    24    17    18    1
    25    18    19    1
    26     7     8   ar
    27     8     9   ar
    28     9    33    1
    29    33    34    1
    30    34    35    1
    31    35    36    1
    32    36    37    1
    33    37    38    1
    34    38    39    1
    35     9    10   ar
    36    10    11   ar
    37    11    12    2
    38    12    13    1
    39    13     1    1
    40    12     4    1
    41    11     6   ar
    42    19    14    1
    43    39    34    1
    44    29    22   ar
@<TRIPOS>MOLECULE
*****
 39 44 0 0 0
SMALL
GASTEIGER

@<TRIPOS>ATOM
      1 C          63.6628   82.7272   13.4965 C.2     1  UNL1        0.2718
      2 C          62.9324   82.1289   12.3310 C.2     1  UNL1        0.0724
      3 C          62.2813   83.0209   11.3158 C.2     1  UNL1        0.0248
      4 C          62.3606   84.5112   11.4663 C.2     1  UNL1        0.0797
      5 N          61.8210   85.6344   10.6314 N.2     1  UNL1       -0.2413
      6 C          62.2178   86.9269   11.2810 C.ar    1  UNL1        0.1300
      7 C          61.9658   88.3573   10.9063 C.ar    1  UNL1        0.1524
      8 N          62.4987   89.4634   11.7681 N.ar    1  UNL1       -0.2130
      9 C          63.2836   89.1390   13.0045 C.ar    1  UNL1        0.1567
     10 N          63.5356   87.7085   13.3791 N.ar    1  UNL1       -0.2279
     11 C          63.0027   86.6025   12.5173 C.ar    1  UNL1        0.1010
     12 C          63.0909   85.1095   12.6319 C.2     1  UNL1        0.0255
     13 C          63.7420   84.2175   13.6470 C.3     1  UNL1        0.1323
     14 N          61.1808   88.6818    9.6699 N.pl3   1  UNL1       -0.2891
     15 C          60.9542   90.1121    9.2791 C.3     1  UNL1        0.1095
     16 C          60.1693   90.4365    8.0427 C.3     1  UNL1        0.0939
     17 N          59.6110   89.3305    7.1971 N.3     1  UNL1       -0.2695
     18 C          59.8376   87.9002    7.5878 C.3     1  UNL1        0.0939
     19 C          60.6225   87.5758    8.8242 C.3     1  UNL1        0.1095
     20 C          58.8261   89.6549    5.9607 C.3     1  UNL1        0.0769
     21 C          58.7484   91.0708    5.4717 C.3     1  UNL1        0.0437
     22 C          59.7586   91.5808    4.4870 C.ar    1  UNL1       -0.0184
     23 C          59.3635   92.6144    3.4744 C.ar    1  UNL1       -0.0018
     24 C          60.3737   93.1243    2.4898 C.ar    1  UNL1        0.0316
     25 C          61.7791   92.6006    2.5179 C.ar    1  UNL1        0.1674
     26 F          62.7893   93.1106    1.5333 F       1  UNL1       -0.2018
     27 C          62.1742   91.5670    3.5305 C.ar    1  UNL1        0.1671
     28 F          63.5795   91.0433    3.5586 F       1  UNL1       -0.2018
     29 C          61.1639   91.0571    4.5152 C.ar    1  UNL1        0.0277
     30 O          65.0326   82.4333   15.6844 O.2     1  UNL1        0.0411
     31 N          64.3138   81.8352   14.5116 N.pl3   1  UNL1        0.0768
     32 O          64.2461   80.3451   14.3539 O.co2   1  UNL1       -0.5763
     33 C          63.8165   90.2450   13.8663 C.3     1  UNL1        0.1390
     34 N          64.9324   91.1139   13.3665 N.3     1  UNL1       -0.2620
     35 C          64.7659   91.8905   12.0941 C.3     1  UNL1        0.1050
     36 C          65.8819   92.7594   11.5943 C.3     1  UNL1        0.1595
     37 O          67.1643   92.8516   12.3670 O.3     1  UNL1       -0.3508
     38 C          67.3308   92.0749   13.6394 C.3     1  UNL1        0.1595
     39 C          66.2148   91.2061   14.1392 C.3     1  UNL1        0.1050
@<TRIPOS>UNITY_ATOM_ATTR
31 1
charge 1
32 1
charge -1
@<TRIPOS>BOND
     1    30    31    2
     2    31    32    1
     3    31     1    1
     4     1     2    2
     5     2     3    1
     6     3     4    2
     7     4     5    1
     8     5     6    2
     9     6     7   ar
    10     7    14    1
    11    14    15    1
    12    15    16    1
    13    16    17    1
    14    17    20    1
    15    20    21    1
    16    21    22    1
    17    22    23   ar
    18    23    24   ar
    19    24    25   ar
    20    25    26    1
    21    25    27   ar
    22    27    28    1
    23    27    29   ar
    24    17    18    1
    25    18    19    1
    26     7     8   ar
    27     8     9   ar
    28     9    33    1
    29    33    34    1
    30    34    35    1
    31    35    36    1
    32    36    37    1
    33    37    38    1
    34    38    39    1
    35     9    10   ar
    36    10    11   ar
    37    11    12    2
    38    12    13    1
    39    13     1    1
    40    12     4    1
    41    11     6   ar
    42    19    14    1
    43    39    34    1
    44    29    22   ar
@<TRIPOS>MOLECULE
*****
 39 44 0 0 0
SMALL
GASTEIGER

@<TRIPOS>ATOM
      1 C          62.8492   82.0980   14.1772 C.2     1  UNL1        0.2718
      2 C          63.6559   82.5766   15.3476 C.2     1  UNL1        0.0724
      3 C          64.0477   84.0211   15.4481 C.2     1  UNL1        0.0248
      4 C          63.6327   84.9869   14.3782 C.2     1  UNL1        0.0797
      5 N          63.8693   86.4583   14.2075 N.2     1  UNL1       -0.2413
      6 C          63.2088   86.8890   12.9315 C.ar    1  UNL1        0.1300
      7 C          63.1112   88.2229   12.2525 C.ar    1  UNL1        0.1524
      8 N          62.3687   88.3517   10.9555 N.ar    1  UNL1       -0.2130
      9 C          61.7239   87.1466   10.3376 C.ar    1  UNL1        0.1567
     10 N          61.8215   85.8127   11.0166 N.ar    1  UNL1       -0.2279
     11 C          62.5639   85.6839   12.3136 C.ar    1  UNL1        0.1010
     12 C          62.8260   84.5083   13.2077 C.2     1  UNL1        0.0255
     13 C          62.4342   83.0639   13.1072 C.3     1  UNL1        0.1323
     14 N          63.7560   89.4281   12.8705 N.pl3   1  UNL1       -0.2891
     15 C          63.6987   90.7524   12.1683 C.3     1  UNL1        0.1095
     16 C          64.3435   91.9575   12.7862 C.3     1  UNL1        0.0939
     17 N          65.0456   91.8384   14.1064 N.3     1  UNL1       -0.2695
     18 C          65.1029   90.5142   14.8086 C.3     1  UNL1        0.0939
     19 C          64.4581   89.3090   14.1907 C.3     1  UNL1        0.1095
     20 C          65.6904   93.0435   14.7244 C.3     1  UNL1        0.0769
     21 C          66.8438   93.7123   14.0370 C.3     1  UNL1        0.0437
     22 C          66.8672   93.8163   12.5407 C.ar    1  UNL1       -0.0184
     23 C          66.3206   95.0390   11.8653 C.ar    1  UNL1       -0.0018
     24 C          66.3441   95.1429   10.3691 C.ar    1  UNL1        0.0316
     25 C          66.9142   94.0242    9.5484 C.ar    1  UNL1        0.1674
     26 F          66.9376   94.1282    8.0522 F       1  UNL1       -0.2018
     27 C          67.4608   92.8016   10.2238 C.ar    1  UNL1        0.1671
     28 F          68.0309   91.6829    9.4031 F       1  UNL1       -0.2018
     29 C          67.4373   92.6975   11.7201 C.ar    1  UNL1        0.0277
     30 O          61.0250   80.2801   13.8341 O.2     1  UNL1        0.0411
     31 N          62.4574   80.6536   14.0767 N.pl3   1  UNL1        0.0768
     32 O          63.4979   79.5826   14.2187 O.co2   1  UNL1       -0.5763
     33 C          60.9814   87.2754    9.0406 C.3     1  UNL1        0.1390
     34 N          61.1206   86.2156    7.9883 N.3     1  UNL1       -0.2620
     35 C          59.9153   85.7557    7.2230 C.3     1  UNL1        0.1050
     36 C          60.0544   84.6959    6.1707 C.3     1  UNL1        0.1595
     37 O          61.3989   84.0960    5.8837 O.3     1  UNL1       -0.3508
     38 C          62.6043   84.5558    6.6489 C.3     1  UNL1        0.1595
     39 C          62.4651   85.6157    7.7012 C.3     1  UNL1        0.1050
@<TRIPOS>UNITY_ATOM_ATTR
31 1
charge 1
32 1
charge -1
@<TRIPOS>BOND
     1    30    31    2
     2    31    32    1
     3    31     1    1
     4     1     2    2
     5     2     3    1
     6     3     4    2
     7     4     5    1
     8     5     6    2
     9     6     7   ar
    10     7    14    1
    11    14    15    1
    12    15    16    1
    13    16    17    1
    14    17    20    1
    15    20    21    1
    16    21    22    1
    17    22    23   ar
    18    23    24   ar
    19    24    25   ar
    20    25    26    1
    21    25    27   ar
    22    27    28    1
    23    27    29   ar
    24    17    18    1
    25    18    19    1
    26     7     8   ar
    27     8     9   ar
    28     9    33    1
    29    33    34    1
    30    34    35    1
    31    35    36    1
    32    36    37    1
    33    37    38    1
    34    38    39    1
    35     9    10   ar
    36    10    11   ar
    37    11    12    2
    38    12    13    1
    39    13     1    1
    40    12     4    1
    41    11     6   ar
    42    19    14    1
    43    39    34    1
    44    29    22   ar
@<TRIPOS>MOLECULE
*****
 39 44 0 0 0
SMALL
GASTEIGER

@<TRIPOS>ATOM
      1 C          60.3024   86.9733    8.6351 C.2     1  UNL1        0.2718
      2 C          60.4172   88.4557    8.4366 C.2     1  UNL1        0.0724
      3 C          61.2064   89.2834    9.4072 C.2     1  UNL1        0.0248
      4 C          61.8809   88.6289   10.5761 C.2     1  UNL1        0.0797
      5 N          62.7200   89.1820   11.6896 N.2     1  UNL1       -0.2413
      6 C          63.1239   88.0414   12.5763 C.ar    1  UNL1        0.1300
      7 C          63.9523   87.9860   13.8254 C.ar    1  UNL1        0.1524
      8 N          64.1912   86.6724   14.5092 N.ar    1  UNL1       -0.2130
      9 C          63.6016   85.4144   13.9437 C.ar    1  UNL1        0.1567
     10 N          62.7732   85.4699   12.6945 N.ar    1  UNL1       -0.2279
     11 C          62.5343   86.7834   12.0108 C.ar    1  UNL1        0.1010
     12 C          61.7661   87.1465   10.7746 C.2     1  UNL1        0.0255
     13 C          60.9768   86.3188    9.8041 C.3     1  UNL1        0.1323
     14 N          64.5419   89.2440   14.3910 N.pl3   1  UNL1       -0.2891
     15 C          66.0280   89.4475   14.3783 C.3     1  UNL1        0.1095
     16 C          66.6176   90.7055   14.9438 C.3     1  UNL1        0.0939
     17 N          65.7210   91.7600   15.5220 N.3     1  UNL1       -0.2695
     18 C          64.2350   91.5565   15.5347 C.3     1  UNL1        0.0939
     19 C          63.6454   90.2985   14.9692 C.3     1  UNL1        0.1095
     20 C          66.3106   93.0180   16.0876 C.3     1  UNL1        0.0769
     21 C          67.1292   93.9214   15.2137 C.3     1  UNL1        0.0437
     22 C          66.9290   93.9102   13.7271 C.ar    1  UNL1       -0.0184
     23 C          67.2457   92.6752   12.9369 C.ar    1  UNL1       -0.0018
     24 C          67.0454   92.6640   11.4504 C.ar    1  UNL1        0.0316
     25 C          66.5285   93.8880   10.7541 C.ar    1  UNL1        0.1674
     26 F          66.3283   93.8768    9.2675 F       1  UNL1       -0.2018
     27 C          66.2118   95.1230   11.5442 C.ar    1  UNL1        0.1671
     28 F          65.6949   96.3469   10.8479 F       1  UNL1       -0.2018
     29 C          66.4121   95.1342   13.0308 C.ar    1  UNL1        0.0277
     30 O          60.2013   85.1015    6.8362 O.2     1  UNL1        0.0411
     31 N          59.5131   86.1456    7.6646 N.pl3   1  UNL1        0.0768
     32 O          58.0357   86.3619    7.5224 O.co2   1  UNL1       -0.5763
     33 C          63.8405   84.1008   14.6275 C.3     1  UNL1        0.1390
     34 N          63.2482   82.8433   14.0638 N.3     1  UNL1       -0.2620
     35 C          61.9468   82.3224   14.5977 C.3     1  UNL1        0.1050
     36 C          61.3545   81.0648   14.0341 C.3     1  UNL1        0.1595
     37 O          62.0636   80.3282   12.9365 O.3     1  UNL1       -0.3508
     38 C          63.3650   80.8491   12.4026 C.3     1  UNL1        0.1595
     39 C          63.9573   82.1066   12.9663 C.3     1  UNL1        0.1050
@<TRIPOS>UNITY_ATOM_ATTR
31 1
charge 1
32 1
charge -1
@<TRIPOS>BOND
     1    30    31    2
     2    31    32    1
     3    31     1    1
     4     1     2    2
     5     2     3    1
     6     3     4    2
     7     4     5    1
     8     5     6    2
     9     6     7   ar
    10     7    14    1
    11    14    15    1
    12    15    16    1
    13    16    17    1
    14    17    20    1
    15    20    21    1
    16    21    22    1
    17    22    23   ar
    18    23    24   ar
    19    24    25   ar
    20    25    26    1
    21    25    27   ar
    22    27    28    1
    23    27    29   ar
    24    17    18    1
    25    18    19    1
    26     7     8   ar
    27     8     9   ar
    28     9    33    1
    29    33    34    1
    30    34    35    1
    31    35    36    1
    32    36    37    1
    33    37    38    1
    34    38    39    1
    35     9    10   ar
    36    10    11   ar
    37    11    12    2
    38    12    13    1
    39    13     1    1
    40    12     4    1
    41    11     6   ar
    42    19    14    1
    43    39    34    1
    44    29    22   ar
@<TRIPOS>MOLECULE
*****
 39 44 0 0 0
SMALL
GASTEIGER

@<TRIPOS>ATOM
      1 C          59.3676   89.8091    6.8354 C.2     1  UNL1        0.2718
      2 C          58.9544   88.4042    7.1604 C.2     1  UNL1        0.0724
      3 C          59.5773   87.6891    8.3226 C.2     1  UNL1        0.0248
      4 C          60.6133   88.3788    9.1598 C.2     1  UNL1        0.0797
      5 N          61.3965   87.9307   10.3580 N.2     1  UNL1       -0.2413
      6 C          62.2937   89.0587   10.7736 C.ar    1  UNL1        0.1300
      7 C          63.2894   89.1909   11.8876 C.ar    1  UNL1        0.1524
      8 N          64.0564   90.4683   12.0603 N.ar    1  UNL1       -0.2130
      9 C          63.8277   91.6135   11.1189 C.ar    1  UNL1        0.1567
     10 N          62.8320   91.4812   10.0049 N.ar    1  UNL1       -0.2279
     11 C          62.0651   90.2038    9.8322 C.ar    1  UNL1        0.1010
     12 C          61.0264   89.7836    8.8348 C.2     1  UNL1        0.0255
     13 C          60.4036   90.4988    7.6726 C.3     1  UNL1        0.1323
     14 N          63.5181   88.0456   12.8291 N.pl3   1  UNL1       -0.2891
     15 C          64.1231   88.2938   14.1790 C.3     1  UNL1        0.1095
     16 C          64.3518   87.1486   15.1204 C.3     1  UNL1        0.0939
     17 N          63.9754   85.7552   14.7119 N.3     1  UNL1       -0.2695
     18 C          63.3704   85.5071   13.3619 C.3     1  UNL1        0.0939
     19 C          63.1418   86.6522   12.4205 C.3     1  UNL1        0.1095
     20 C          64.2041   84.6101   15.6532 C.3     1  UNL1        0.0769
     21 C          63.1659   83.5367   15.7947 C.3     1  UNL1        0.0437
     22 C          63.0168   82.4922   14.7284 C.ar    1  UNL1       -0.0184
     23 C          64.0720   82.3420   13.6729 C.ar    1  UNL1       -0.0018
     24 C          63.9228   81.2976   12.6067 C.ar    1  UNL1        0.0316
     25 C          62.7186   80.4033   12.5959 C.ar    1  UNL1        0.1674
     26 F          62.5695   79.3589   11.5297 F       1  UNL1       -0.2018
     27 C          61.6634   80.5535   13.6514 C.ar    1  UNL1        0.1671
     28 F          60.4592   79.6593   13.6407 F       1  UNL1       -0.2018
     29 C          61.8125   81.5980   14.7177 C.ar    1  UNL1        0.0277
     30 O          57.2538   90.5321    5.5092 O.2     1  UNL1        0.0411
     31 N          58.7447   90.5242    5.6733 N.pl3   1  UNL1        0.0768
     32 O          59.6128   91.2314    4.6752 O.co2   1  UNL1       -0.5763
     33 C          64.5948   92.8910   11.2915 C.3     1  UNL1        0.1390
     34 N          65.9470   93.0449   10.6608 N.3     1  UNL1       -0.2620
     35 C          66.2520   94.2534    9.8262 C.3     1  UNL1        0.1050
     36 C          67.6042   94.4074    9.1955 C.3     1  UNL1        0.1595
     37 O          68.6514   93.3529    9.3995 O.3     1  UNL1       -0.3508
     38 C          68.3464   92.1445   10.2341 C.3     1  UNL1        0.1595
     39 C          66.9941   91.9905   10.8648 C.3     1  UNL1        0.1050
@<TRIPOS>UNITY_ATOM_ATTR
31 1
charge 1
32 1
charge -1
@<TRIPOS>BOND
     1    30    31    2
     2    31    32    1
     3    31     1    1
     4     1     2    2
     5     2     3    1
     6     3     4    2
     7     4     5    1
     8     5     6    2
     9     6     7   ar
    10     7    14    1
    11    14    15    1
    12    15    16    1
    13    16    17    1
    14    17    20    1
    15    20    21    1
    16    21    22    1
    17    22    23   ar
    18    23    24   ar
    19    24    25   ar
    20    25    26    1
    21    25    27   ar
    22    27    28    1
    23    27    29   ar
    24    17    18    1
    25    18    19    1
    26     7     8   ar
    27     8     9   ar
    28     9    33    1
    29    33    34    1
    30    34    35    1
    31    35    36    1
    32    36    37    1
    33    37    38    1
    34    38    39    1
    35     9    10   ar
    36    10    11   ar
    37    11    12    2
    38    12    13    1
    39    13     1    1
    40    12     4    1
    41    11     6   ar
    42    19    14    1
    43    39    34    1
    44    29    22   ar
@<TRIPOS>MOLECULE
*****
 39 44 0 0 0
SMALL
GASTEIGER

@<TRIPOS>ATOM
      1 C          63.0929   81.4675   13.6246 C.2     1  UNL1        0.2718
      2 C          63.9558   82.0039   14.7281 C.2     1  UNL1        0.0724
      3 C          64.2429   83.4740   14.8085 C.2     1  UNL1        0.0248
      4 C          63.6672   84.4076   13.7855 C.2     1  UNL1        0.0797
      5 N          63.7753   85.8933   13.6088 N.2     1  UNL1       -0.2413
      6 C          62.9793   86.2751   12.3961 C.ar    1  UNL1        0.1300
      7 C          62.7234   87.5992   11.7396 C.ar    1  UNL1        0.1524
      8 N          61.8674   87.6736   10.5101 N.ar    1  UNL1       -0.2130
      9 C          61.2673   86.4240    9.9372 C.ar    1  UNL1        0.1567
     10 N          61.5232   85.0999   10.5938 N.ar    1  UNL1       -0.2279
     11 C          62.3792   85.0254   11.8233 C.ar    1  UNL1        0.1010
     12 C          62.8043   83.8713   12.6819 C.2     1  UNL1        0.0255
     13 C          62.5172   82.4012   12.6015 C.3     1  UNL1        0.1323
     14 N          63.3235   88.8489   12.3125 N.pl3   1  UNL1       -0.2891
     15 C          63.9766   88.8167   13.6624 C.3     1  UNL1        0.1095
     16 C          64.5767   90.0664   14.2353 C.3     1  UNL1        0.0939
     17 N          64.5237   91.3483   13.4581 N.3     1  UNL1       -0.2695
     18 C          63.8706   91.3805   12.1081 C.3     1  UNL1        0.0939
     19 C          63.2706   90.1308   11.5353 C.3     1  UNL1        0.1095
     20 C          65.1238   92.5980   14.0309 C.3     1  UNL1        0.0769
     21 C          66.4811   93.0521   13.5821 C.3     1  UNL1        0.0437
     22 C          66.7078   93.4366   12.1499 C.ar    1  UNL1       -0.0184
     23 C          66.2799   94.7880   11.6594 C.ar    1  UNL1       -0.0018
     24 C          66.5066   95.1725   10.2274 C.ar    1  UNL1        0.0316
     25 C          67.1612   94.2055    9.2858 C.ar    1  UNL1        0.1674
     26 F          67.3879   94.5899    7.8538 F       1  UNL1       -0.2018
     27 C          67.5891   92.8541    9.7763 C.ar    1  UNL1        0.1671
     28 F          68.2437   91.8871    8.8348 F       1  UNL1       -0.2018
     29 C          67.3624   92.4696   11.2085 C.ar    1  UNL1        0.0277
     30 O          62.5599   79.3531   12.2122 O.2     1  UNL1        0.0411
     31 N          62.8058   79.9974   13.5442 N.pl3   1  UNL1        0.0768
     32 O          62.7647   79.1717   14.7957 O.co2   1  UNL1       -0.5763
     33 C          60.4112   86.4985    8.7077 C.3     1  UNL1        0.1390
     34 N          59.9991   87.8329    8.1604 N.3     1  UNL1       -0.2620
     35 C          59.4097   87.9296    6.7845 C.3     1  UNL1        0.1050
     36 C          58.9976   89.2640    6.2372 C.3     1  UNL1        0.1595
     37 O          59.1748   90.5017    7.0660 O.3     1  UNL1       -0.3508
     38 C          59.7642   90.4049    8.4419 C.3     1  UNL1        0.1595
     39 C          60.1763   89.0705    8.9892 C.3     1  UNL1        0.1050
@<TRIPOS>UNITY_ATOM_ATTR
31 1
charge 1
32 1
charge -1
@<TRIPOS>BOND
     1    30    31    2
     2    31    32    1
     3    31     1    1
     4     1     2    2
     5     2     3    1
     6     3     4    2
     7     4     5    1
     8     5     6    2
     9     6     7   ar
    10     7    14    1
    11    14    15    1
    12    15    16    1
    13    16    17    1
    14    17    20    1
    15    20    21    1
    16    21    22    1
    17    22    23   ar
    18    23    24   ar
    19    24    25   ar
    20    25    26    1
    21    25    27   ar
    22    27    28    1
    23    27    29   ar
    24    17    18    1
    25    18    19    1
    26     7     8   ar
    27     8     9   ar
    28     9    33    1
    29    33    34    1
    30    34    35    1
    31    35    36    1
    32    36    37    1
    33    37    38    1
    34    38    39    1
    35     9    10   ar
    36    10    11   ar
    37    11    12    2
    38    12    13    1
    39    13     1    1
    40    12     4    1
    41    11     6   ar
    42    19    14    1
    43    39    34    1
    44    29    22   ar
