@<TRIPOS>MOLECULE
*****
 45 48 0 0 0
SMALL
GASTEIGER

@<TRIPOS>ATOM
      1 C          60.3483   87.6014    9.8930 C.3     1  UNL1        0.1246
      2 C          59.5635   88.3920    7.5458 C.2     1  UNL1        0.2493
      3 O          59.2014   86.9802    7.1914 O.2     1  UNL1       -0.2699
      4 N          60.1370   88.7026    8.8966 N.am    1  UNL1       -0.2711
      5 C          60.4664   92.8933    3.1096 C.ar    1  UNL1        0.2891
      6 N          59.0281   92.7735    3.5184 N.ar    1  UNL1       -0.1948
      7 C          58.9295   91.6954    4.5567 C.ar    1  UNL1        0.1202
      8 C          57.7635   91.1408    5.3201 C.ar    1  UNL1        0.0225
      9 C          57.9749   90.0397    6.3164 C.ar    1  UNL1        0.0063
     10 C          59.3522   89.4932    6.5494 C.ar    1  UNL1        0.0567
     11 C          60.5182   90.0478    5.7860 C.ar    1  UNL1        0.0437
     12 C          60.3068   91.1489    4.7896 C.ar    1  UNL1        0.1662
     13 O          61.2566   91.8892    3.8953 O.2     1  UNL1       -0.4239
     14 N          61.0175   93.8493    2.0936 N.pl3   1  UNL1       -0.2884
     15 H          61.2626   94.7645    2.3609 H       1  UNL1        0.1511
     16 C          60.8314   92.0132    0.2649 C.3     1  UNL1        0.0231
     17 C          61.1953   93.4108    0.6702 C.3     1  UNL1        0.0911
     18 C          60.4991   90.1144    9.2510 C.3     1  UNL1        0.1205
     19 C          61.0582   90.4274   10.6073 C.3     1  UNL1        0.1067
     20 C          59.6744   90.3946   11.1852 C.3     1  UNL1        0.0311
     21 C          62.4419   90.4602   10.0293 C.3     1  UNL1        0.0311
     22 O          61.6172   90.7404   11.9636 O.3     1  UNL1       -0.3851
     23 H          60.8940   90.7878   12.6083 H       1  UNL1        0.2103
     24 C          61.7166   87.0185   10.0877 C.3     1  UNL1        0.1484
     25 O          62.5612   86.6736    8.8971 O.3     1  UNL1       -0.3810
     26 H          63.4093   86.3103    9.1966 H       1  UNL1        0.2105
     27 C          62.2402   86.7805   11.4730 C.3     1  UNL1        0.1075
     28 N          63.0094   87.8572   12.1794 N.am    1  UNL1       -0.2695
     29 C          63.7169   87.5523   13.4664 C.2     1  UNL1        0.4020
     30 O          63.6552   86.1707   14.0470 O.2     1  UNL1       -0.2264
     31 H          63.0499   88.7641   11.7982 H       1  UNL1        0.1528
     32 O          64.4861   88.6291   14.1727 O.3     1  UNL1       -0.4291
     33 C          63.9445   90.0269   14.2243 C.3     1  UNL1        0.2447
     34 C          64.8309   91.1878   13.8826 C.ar    1  UNL1        0.0714
     35 C          64.8619   91.9177   12.5725 C.ar    1  UNL1        0.1053
     36 N          65.8921   93.0035   12.6711 N.ar    1  UNL1       -0.2350
     37 C          66.4978   92.9447   14.0421 C.ar    1  UNL1        0.1343
     38 S          65.8420   91.8225   14.7909 S.2     1  UNL1       -0.0652
     39 C          61.9946   85.4657   12.1521 C.3     1  UNL1        0.0485
     40 C          62.6397   84.2179   11.6260 C.ar    1  UNL1       -0.0204
     41 C          62.4320   82.9111   12.3326 C.ar    1  UNL1       -0.0042
     42 C          63.0771   81.6632   11.8066 C.ar    1  UNL1       -0.0003
     43 C          63.9299   81.7221   10.5740 C.ar    1  UNL1       -0.0000
     44 C          64.1375   83.0289    9.8674 C.ar    1  UNL1       -0.0003
     45 C          63.4924   84.2768   10.3934 C.ar    1  UNL1       -0.0042
@<TRIPOS>BOND
     1    16    17    1
     2    17    14    1
     3    14     5    1
     4     5     6   ar
     5     6     7   ar
     6     7     8   ar
     7     8     9   ar
     8     9    10   ar
     9    10     2    1
    10     2     3    2
    11     2     4   am
    12     4     1    1
    13     1    24    1
    14    24    25    1
    15    24    27    1
    16    27    39    1
    17    39    40    1
    18    40    41   ar
    19    41    42   ar
    20    42    43   ar
    21    43    44   ar
    22    44    45   ar
    23    27    28    1
    24    28    29   am
    25    29    30    2
    26    29    32    1
    27    32    33    1
    28    33    34    1
    29    34    35   ar
    30    35    36   ar
    31    36    37   ar
    32    37    38   ar
    33     4    18    1
    34    18    19    1
    35    19    20    1
    36    19    21    1
    37    19    22    1
    38    10    11   ar
    39    11    12   ar
    40    12    13   ar
    41    13     5   ar
    42    12     7   ar
    43    45    40   ar
    44    38    34   ar
    45    14    15    1
    46    25    26    1
    47    28    31    1
    48    22    23    1
@<TRIPOS>MOLECULE
*****
 45 48 0 0 0
SMALL
GASTEIGER

@<TRIPOS>ATOM
      1 C          62.0128   87.6333   12.2460 C.3     1  UNL1        0.1246
      2 C          63.7172   89.2857   13.3017 C.2     1  UNL1        0.2493
      3 O          63.8803   88.3671   14.4762 O.2     1  UNL1       -0.2699
      4 N          62.7835   88.9189   12.1866 N.am    1  UNL1       -0.2711
      5 C          66.2338   94.8349   11.3963 C.ar    1  UNL1        0.2891
      6 N          66.6739   94.4518   12.7782 N.ar    1  UNL1       -0.1948
      7 C          66.0290   93.1424   13.1238 C.ar    1  UNL1        0.1202
      8 C          66.0971   92.2831   14.3514 C.ar    1  UNL1        0.0225
      9 C          65.3265   90.9976   14.4107 C.ar    1  UNL1        0.0063
     10 C          64.4878   90.5713   13.2424 C.ar    1  UNL1        0.0567
     11 C          64.4197   91.4306   12.0148 C.ar    1  UNL1        0.0437
     12 C          65.1903   92.7161   11.9555 C.ar    1  UNL1        0.1662
     13 O          65.3169   93.7621   10.8879 O.2     1  UNL1       -0.4239
     14 N          66.6394   96.0732   10.6533 N.pl3   1  UNL1       -0.2884
     15 H          66.4854   96.9597   11.0529 H       1  UNL1        0.1511
     16 C          67.8613   94.6529    8.8534 C.3     1  UNL1        0.0231
     17 C          67.2797   95.9609    9.3015 C.3     1  UNL1        0.0911
     18 C          62.6203   89.8375   11.0121 C.3     1  UNL1        0.1205
     19 C          61.2524   90.1201   10.4653 C.3     1  UNL1        0.1067
     20 C          60.8913   90.8308   11.7359 C.3     1  UNL1        0.0311
     21 C          61.6135   89.4094    9.1947 C.3     1  UNL1        0.0311
     22 O          59.8845   90.4027    9.9185 O.3     1  UNL1       -0.3851
     23 H          59.3695   90.8970   10.5754 H       1  UNL1        0.2103
     24 C          62.7358   86.3213   12.1695 C.3     1  UNL1        0.1484
     25 O          63.5181   85.8261   13.3496 O.3     1  UNL1       -0.3810
     26 H          63.9204   84.9700   13.1347 H       1  UNL1        0.2105
     27 C          62.6764   85.5044   10.9128 C.3     1  UNL1        0.1075
     28 N          62.3945   84.0331   10.9873 N.am    1  UNL1       -0.2695
     29 C          63.4908   83.0449   10.7197 C.2     1  UNL1        0.4020
     30 O          64.8690   83.5281   10.3777 O.2     1  UNL1       -0.2264
     31 H          61.4899   83.7159   11.2118 H       1  UNL1        0.1528
     32 O          63.2088   81.5735   10.7942 O.3     1  UNL1       -0.4291
     33 C          62.9784   80.9204   12.1247 C.3     1  UNL1        0.2447
     34 C          63.0182   81.7408   13.3799 C.ar    1  UNL1        0.0714
     35 C          64.2503   82.2912   14.0348 C.ar    1  UNL1        0.1053
     36 N          63.8265   83.0454   15.2601 N.ar    1  UNL1       -0.2350
     37 C          62.3324   82.9612   15.3625 C.ar    1  UNL1        0.1343
     38 S          61.8327   82.1549   14.2005 S.2     1  UNL1       -0.0652
     39 C          62.8990   86.1590    9.5816 C.3     1  UNL1        0.0485
     40 C          62.2325   85.6100    8.3551 C.ar    1  UNL1       -0.0204
     41 C          63.0179   84.7817    7.3819 C.ar    1  UNL1       -0.0042
     42 C          62.3514   84.2326    6.1554 C.ar    1  UNL1       -0.0003
     43 C          60.8995   84.5119    5.9020 C.ar    1  UNL1       -0.0000
     44 C          60.1142   85.3403    6.8753 C.ar    1  UNL1       -0.0003
     45 C          60.7807   85.8893    8.1017 C.ar    1  UNL1       -0.0042
@<TRIPOS>BOND
     1    16    17    1
     2    17    14    1
     3    14     5    1
     4     5     6   ar
     5     6     7   ar
     6     7     8   ar
     7     8     9   ar
     8     9    10   ar
     9    10     2    1
    10     2     3    2
    11     2     4   am
    12     4     1    1
    13     1    24    1
    14    24    25    1
    15    24    27    1
    16    27    39    1
    17    39    40    1
    18    40    41   ar
    19    41    42   ar
    20    42    43   ar
    21    43    44   ar
    22    44    45   ar
    23    27    28    1
    24    28    29   am
    25    29    30    2
    26    29    32    1
    27    32    33    1
    28    33    34    1
    29    34    35   ar
    30    35    36   ar
    31    36    37   ar
    32    37    38   ar
    33     4    18    1
    34    18    19    1
    35    19    20    1
    36    19    21    1
    37    19    22    1
    38    10    11   ar
    39    11    12   ar
    40    12    13   ar
    41    13     5   ar
    42    12     7   ar
    43    45    40   ar
    44    38    34   ar
    45    14    15    1
    46    25    26    1
    47    28    31    1
    48    22    23    1
@<TRIPOS>MOLECULE
*****
 45 48 0 0 0
SMALL
GASTEIGER

@<TRIPOS>ATOM
      1 C          63.7050   90.4739   12.0316 C.3     1  UNL1        0.1246
      2 C          64.2062   88.6103   13.7712 C.2     1  UNL1        0.2493
      3 O          65.1526   89.5302   14.4840 O.2     1  UNL1       -0.2699
      4 N          63.4824   89.0821   12.5450 N.am    1  UNL1       -0.2711
      5 C          63.4942   82.2802   14.1956 C.ar    1  UNL1        0.2891
      6 N          63.3548   82.9618   15.5245 N.ar    1  UNL1       -0.1948
      7 C          63.5385   84.4352   15.3114 C.ar    1  UNL1        0.1202
      8 C          63.5081   85.5978   16.2587 C.ar    1  UNL1        0.0225
      9 C          63.7307   86.9895   15.7452 C.ar    1  UNL1        0.0063
     10 C          63.9836   87.2185   14.2846 C.ar    1  UNL1        0.0567
     11 C          64.0140   86.0559   13.3373 C.ar    1  UNL1        0.0437
     12 C          63.7914   84.6642   13.8507 C.ar    1  UNL1        0.1662
     13 O          63.7640   83.3324   13.1612 O.2     1  UNL1       -0.4239
     14 N          63.3832   80.8055   13.9452 N.pl3   1  UNL1       -0.2884
     15 H          64.1868   80.2379   13.9831 H       1  UNL1        0.1511
     16 C          60.7897   80.8827   14.0778 C.3     1  UNL1        0.0231
     17 C          62.0480   80.1955   13.6369 C.3     1  UNL1        0.0911
     18 C          62.5360   88.1622   11.8322 C.3     1  UNL1        0.1205
     19 C          61.5087   88.7230   10.8941 C.3     1  UNL1        0.1067
     20 C          60.8693   89.4587   12.0341 C.3     1  UNL1        0.0311
     21 C          62.1482   87.9873    9.7540 C.3     1  UNL1        0.0311
     22 O          60.4814   89.2839    9.9559 O.3     1  UNL1       -0.3851
     23 H          59.8701   89.8533   10.4488 H       1  UNL1        0.2103
     24 C          64.1425   91.5586   12.9706 C.3     1  UNL1        0.1484
     25 O          63.5286   91.6619   14.3353 O.3     1  UNL1       -0.3810
     26 H          63.9204   92.4115   14.8102 H       1  UNL1        0.2105
     27 C          65.1938   92.5401   12.5449 C.3     1  UNL1        0.1075
     28 N          65.6928   92.5383   11.1303 N.am    1  UNL1       -0.2695
     29 C          67.1522   92.3344   10.8501 C.2     1  UNL1        0.4020
     30 O          68.1126   92.1324   11.9844 O.2     1  UNL1       -0.2264
     31 H          65.0624   92.6709   10.3858 H       1  UNL1        0.1528
     32 O          67.6512   92.3326    9.4355 O.3     1  UNL1       -0.4291
     33 C          68.2149   93.5873    8.8374 C.3     1  UNL1        0.2447
     34 C          67.4108   94.8535    8.8549 C.ar    1  UNL1        0.0714
     35 C          66.7806   95.5142    7.6648 C.ar    1  UNL1        0.1053
     36 N          66.0760   96.7503    8.1398 N.ar    1  UNL1       -0.2350
     37 C          66.2707   96.8535    9.6236 C.ar    1  UNL1        0.1343
     38 S          67.0957   95.6812   10.0655 S.2     1  UNL1       -0.0652
     39 C          65.7463   93.5235   13.5338 C.3     1  UNL1        0.0485
     40 C          66.8505   93.1133   14.4625 C.ar    1  UNL1       -0.0204
     41 C          67.0332   91.6676   14.8180 C.ar    1  UNL1       -0.0042
     42 C          68.1374   91.2574   15.7467 C.ar    1  UNL1       -0.0003
     43 C          69.0588   92.2929   16.3200 C.ar    1  UNL1       -0.0000
     44 C          68.8760   93.7388   15.9645 C.ar    1  UNL1       -0.0003
     45 C          67.7719   94.1489   15.0357 C.ar    1  UNL1       -0.0042
@<TRIPOS>BOND
     1    16    17    1
     2    17    14    1
     3    14     5    1
     4     5     6   ar
     5     6     7   ar
     6     7     8   ar
     7     8     9   ar
     8     9    10   ar
     9    10     2    1
    10     2     3    2
    11     2     4   am
    12     4     1    1
    13     1    24    1
    14    24    25    1
    15    24    27    1
    16    27    39    1
    17    39    40    1
    18    40    41   ar
    19    41    42   ar
    20    42    43   ar
    21    43    44   ar
    22    44    45   ar
    23    27    28    1
    24    28    29   am
    25    29    30    2
    26    29    32    1
    27    32    33    1
    28    33    34    1
    29    34    35   ar
    30    35    36   ar
    31    36    37   ar
    32    37    38   ar
    33     4    18    1
    34    18    19    1
    35    19    20    1
    36    19    21    1
    37    19    22    1
    38    10    11   ar
    39    11    12   ar
    40    12    13   ar
    41    13     5   ar
    42    12     7   ar
    43    45    40   ar
    44    38    34   ar
    45    14    15    1
    46    25    26    1
    47    28    31    1
    48    22    23    1
@<TRIPOS>MOLECULE
*****
 45 48 0 0 0
SMALL
GASTEIGER

@<TRIPOS>ATOM
      1 C          62.7726   88.5043   11.4511 C.3     1  UNL1        0.1246
      2 C          63.2264   86.3681   12.8584 C.2     1  UNL1        0.2493
      3 O          64.2268   87.1233   13.6823 O.2     1  UNL1       -0.2699
      4 N          62.4993   87.0585   11.7429 N.am    1  UNL1       -0.2711
      5 C          62.6075   80.0327   12.3709 C.ar    1  UNL1        0.2891
      6 N          62.2250   80.5419   13.7290 N.ar    1  UNL1       -0.1948
      7 C          62.4064   82.0309   13.7339 C.ar    1  UNL1        0.1202
      8 C          62.1852   83.0654   14.7972 C.ar    1  UNL1        0.0225
      9 C          62.4585   84.5111   14.5054 C.ar    1  UNL1        0.0063
     10 C          62.9531   84.9223   13.1502 C.ar    1  UNL1        0.0567
     11 C          63.1743   83.8877   12.0869 C.ar    1  UNL1        0.0437
     12 C          62.9010   82.4420   12.3788 C.ar    1  UNL1        0.1662
     13 O          63.0252   81.2071   11.5364 O.2     1  UNL1       -0.4239
     14 N          62.5774   78.6007   11.9255 N.pl3   1  UNL1       -0.2884
     15 H          62.4921   77.8800   12.5907 H       1  UNL1        0.1511
     16 C          62.7635   79.3662    9.4497 C.3     1  UNL1        0.0231
     17 C          62.6772   78.2668   10.4665 C.3     1  UNL1        0.0911
     18 C          61.4988   86.3032   10.9190 C.3     1  UNL1        0.1205
     19 C          61.1163   86.8048    9.5582 C.3     1  UNL1        0.1067
     20 C          62.2582   86.0414    8.9557 C.3     1  UNL1        0.0311
     21 C          59.9743   87.5683   10.1606 C.3     1  UNL1        0.0311
     22 O          60.7337   87.3065    8.1972 O.3     1  UNL1       -0.3851
     23 H          61.3475   86.9491    7.5366 H       1  UNL1        0.2103
     24 C          62.3978   89.5555   12.4532 C.3     1  UNL1        0.1484
     25 O          60.9643   89.7266   12.8603 O.3     1  UNL1       -0.3810
     26 H          60.8961   90.4433   13.5103 H       1  UNL1        0.2105
     27 C          63.4566   90.4358   13.0483 C.3     1  UNL1        0.1075
     28 N          64.2410   91.3644   12.1695 N.am    1  UNL1       -0.2695
     29 C          63.6933   91.7756   10.8350 C.2     1  UNL1        0.4020
     30 O          62.3613   91.2581   10.3793 O.2     1  UNL1       -0.2264
     31 H          65.1153   91.7041   12.4686 H       1  UNL1        0.1528
     32 O          64.4777   92.7043    9.9562 O.3     1  UNL1       -0.4291
     33 C          65.8924   93.0556   10.3100 C.3     1  UNL1        0.2447
     34 C          66.3682   94.4722   10.1806 C.ar    1  UNL1        0.0714
     35 C          66.1331   95.5751   11.1697 C.ar    1  UNL1        0.1053
     36 N          66.7822   96.8193   10.6398 N.ar    1  UNL1       -0.2350
     37 C          67.4185   96.4853    9.3231 C.ar    1  UNL1        0.1343
     38 S          67.1626   95.0347    9.0393 S.2     1  UNL1       -0.0652
     39 C          63.7310   90.3873   14.5222 C.3     1  UNL1        0.0485
     40 C          64.9138   91.1150   15.0892 C.ar    1  UNL1       -0.0204
     41 C          64.7353   92.0445   16.2528 C.ar    1  UNL1       -0.0042
     42 C          65.9181   92.7723   16.8198 C.ar    1  UNL1       -0.0003
     43 C          67.2794   92.5704   16.2232 C.ar    1  UNL1       -0.0000
     44 C          67.4579   91.6408   15.0595 C.ar    1  UNL1       -0.0003
     45 C          66.2752   90.9132   14.4925 C.ar    1  UNL1       -0.0042
@<TRIPOS>BOND
     1    16    17    1
     2    17    14    1
     3    14     5    1
     4     5     6   ar
     5     6     7   ar
     6     7     8   ar
     7     8     9   ar
     8     9    10   ar
     9    10     2    1
    10     2     3    2
    11     2     4   am
    12     4     1    1
    13     1    24    1
    14    24    25    1
    15    24    27    1
    16    27    39    1
    17    39    40    1
    18    40    41   ar
    19    41    42   ar
    20    42    43   ar
    21    43    44   ar
    22    44    45   ar
    23    27    28    1
    24    28    29   am
    25    29    30    2
    26    29    32    1
    27    32    33    1
    28    33    34    1
    29    34    35   ar
    30    35    36   ar
    31    36    37   ar
    32    37    38   ar
    33     4    18    1
    34    18    19    1
    35    19    20    1
    36    19    21    1
    37    19    22    1
    38    10    11   ar
    39    11    12   ar
    40    12    13   ar
    41    13     5   ar
    42    12     7   ar
    43    45    40   ar
    44    38    34   ar
    45    14    15    1
    46    25    26    1
    47    28    31    1
    48    22    23    1
@<TRIPOS>MOLECULE
*****
 45 48 0 0 0
SMALL
GASTEIGER

@<TRIPOS>ATOM
      1 C          61.6792   87.3144   11.4994 C.3     1  UNL1        0.1246
      2 C          63.4304   88.7792   12.7395 C.2     1  UNL1        0.2493
      3 O          63.6355   87.6839   13.7436 O.2     1  UNL1       -0.2699
      4 N          62.4523   88.5945   11.6174 N.am    1  UNL1       -0.2711
      5 C          66.1240   94.4401   11.5331 C.ar    1  UNL1        0.2891
      6 N          66.4257   93.9466   12.9171 N.ar    1  UNL1       -0.1948
      7 C          65.7495   92.6193   13.0936 C.ar    1  UNL1        0.1202
      8 C          65.6961   91.6660   14.2504 C.ar    1  UNL1        0.0225
      9 C          64.9231   90.3860   14.1324 C.ar    1  UNL1        0.0063
     10 C          64.2035   90.0593   12.8575 C.ar    1  UNL1        0.0567
     11 C          64.2569   91.0126   11.7006 C.ar    1  UNL1        0.0437
     12 C          65.0299   92.2925   11.8186 C.ar    1  UNL1        0.1662
     13 O          65.2614   93.4179   10.8543 O.2     1  UNL1       -0.4239
     14 N          66.6012   95.7295   10.9333 N.pl3   1  UNL1       -0.2884
     15 H          66.5705   96.5595   11.4620 H       1  UNL1        0.1511
     16 C          67.9116   94.5913    9.0002 C.3     1  UNL1        0.0231
     17 C          67.1252   95.7544    9.5281 C.3     1  UNL1        0.0911
     18 C          62.2472   89.6898   10.6132 C.3     1  UNL1        0.1205
     19 C          60.8579   90.1109   10.2360 C.3     1  UNL1        0.1067
     20 C          60.9990   89.4003    8.9226 C.3     1  UNL1        0.0311
     21 C          60.7167   90.8215   11.5494 C.3     1  UNL1        0.0311
     22 O          59.4685   90.5321    9.8588 O.3     1  UNL1       -0.3851
     23 H          59.2551   90.1896    8.9767 H       1  UNL1        0.2103
     24 C          62.2666   86.1489   10.7601 C.3     1  UNL1        0.1484
     25 O          62.4470   86.2181    9.2726 O.3     1  UNL1       -0.3810
     26 H          62.8360   85.3881    8.9551 H       1  UNL1        0.2105
     27 C          62.6737   84.9143   11.5083 C.3     1  UNL1        0.1075
     28 N          63.3130   85.0330   12.8600 N.am    1  UNL1       -0.2695
     29 C          64.6038   84.3237   13.1441 C.2     1  UNL1        0.4020
     30 O          65.2551   83.4955   12.0765 O.2     1  UNL1       -0.2264
     31 H          62.8855   85.5766   13.5608 H       1  UNL1        0.1528
     32 O          65.2432   84.4424   14.4958 O.3     1  UNL1       -0.4291
     33 C          64.4720   84.0658   15.7260 C.3     1  UNL1        0.2447
     34 C          63.4246   84.9929   16.2678 C.ar    1  UNL1        0.0714
     35 C          61.9405   84.8197   16.1361 C.ar    1  UNL1        0.1053
     36 N          61.2761   85.9758   16.8233 N.ar    1  UNL1       -0.2350
     37 C          62.3496   86.8635   17.3796 C.ar    1  UNL1        0.1343
     38 S          63.6775   86.2561   17.0363 S.2     1  UNL1       -0.0652
     39 C          62.4413   83.5607   10.9049 C.3     1  UNL1        0.0485
     40 C          62.3726   82.3486   11.7858 C.ar    1  UNL1       -0.0204
     41 C          61.8079   82.4592   13.1710 C.ar    1  UNL1       -0.0042
     42 C          61.7392   81.2471   14.0519 C.ar    1  UNL1       -0.0003
     43 C          62.2352   79.9243   13.5476 C.ar    1  UNL1       -0.0000
     44 C          62.8000   79.8138   12.1624 C.ar    1  UNL1       -0.0003
     45 C          62.8687   81.0259   11.2815 C.ar    1  UNL1       -0.0042
@<TRIPOS>BOND
     1    16    17    1
     2    17    14    1
     3    14     5    1
     4     5     6   ar
     5     6     7   ar
     6     7     8   ar
     7     8     9   ar
     8     9    10   ar
     9    10     2    1
    10     2     3    2
    11     2     4   am
    12     4     1    1
    13     1    24    1
    14    24    25    1
    15    24    27    1
    16    27    39    1
    17    39    40    1
    18    40    41   ar
    19    41    42   ar
    20    42    43   ar
    21    43    44   ar
    22    44    45   ar
    23    27    28    1
    24    28    29   am
    25    29    30    2
    26    29    32    1
    27    32    33    1
    28    33    34    1
    29    34    35   ar
    30    35    36   ar
    31    36    37   ar
    32    37    38   ar
    33     4    18    1
    34    18    19    1
    35    19    20    1
    36    19    21    1
    37    19    22    1
    38    10    11   ar
    39    11    12   ar
    40    12    13   ar
    41    13     5   ar
    42    12     7   ar
    43    45    40   ar
    44    38    34   ar
    45    14    15    1
    46    25    26    1
    47    28    31    1
    48    22    23    1
@<TRIPOS>MOLECULE
*****
 45 48 0 0 0
SMALL
GASTEIGER

@<TRIPOS>ATOM
      1 C          62.8652   87.3532   13.1375 C.3     1  UNL1        0.1246
      2 C          64.2180   89.3722   14.0561 C.2     1  UNL1        0.2493
      3 O          64.3283   88.6920   15.3885 O.2     1  UNL1       -0.2699
      4 N          63.4864   88.7028   12.9306 N.am    1  UNL1       -0.2711
      5 C          66.1810   94.8838   11.5016 C.ar    1  UNL1        0.2891
      6 N          66.5903   94.7411   12.9376 N.ar    1  UNL1       -0.1948
      7 C          66.0818   93.4208   13.4356 C.ar    1  UNL1        0.1202
      8 C          66.1841   92.7447   14.7706 C.ar    1  UNL1        0.0225
      9 C          65.5629   91.3951   14.9774 C.ar    1  UNL1        0.0063
     10 C          64.8393   90.7217   13.8492 C.ar    1  UNL1        0.0567
     11 C          64.7369   91.3978   12.5142 C.ar    1  UNL1        0.0437
     12 C          65.3581   92.7474   12.3074 C.ar    1  UNL1        0.1662
     13 O          65.4195   93.6516   11.1121 O.2     1  UNL1       -0.4239
     14 N          66.4805   96.0533   10.6114 N.pl3   1  UNL1       -0.2884
     15 H          66.1856   96.9565   10.8693 H       1  UNL1        0.1511
     16 C          67.9747   94.5665    9.0926 C.3     1  UNL1        0.0231
     17 C          67.2295   95.8467    9.3283 C.3     1  UNL1        0.0911
     18 C          63.3761   89.3829   11.5982 C.3     1  UNL1        0.1205
     19 C          62.0486   89.8980   11.1267 C.3     1  UNL1        0.1067
     20 C          61.4825   89.6971   12.5012 C.3     1  UNL1        0.0311
     21 C          62.6147   90.0989    9.7523 C.3     1  UNL1        0.0311
     22 O          60.7210   90.4131   10.6552 O.3     1  UNL1       -0.3851
     23 H          60.0897   90.4016   11.3916 H       1  UNL1        0.2103
     24 C          63.7206   86.1865   13.5337 C.3     1  UNL1        0.1484
     25 O          64.7315   86.3364   14.6317 O.3     1  UNL1       -0.3810
     26 H          65.1958   85.4946   14.7609 H       1  UNL1        0.2105
     27 C          63.5651   84.8700   12.8319 C.3     1  UNL1        0.1075
     28 N          62.9235   84.8133   11.4773 N.am    1  UNL1       -0.2695
     29 C          63.6230   84.1224   10.3444 C.2     1  UNL1        0.4020
     30 O          64.9640   83.4882   10.5663 O.2     1  UNL1       -0.2264
     31 H          62.0433   85.2296   11.3317 H       1  UNL1        0.1528
     32 O          62.9814   84.0658    8.9898 O.3     1  UNL1       -0.4291
     33 C          62.7156   85.3328    8.2322 C.3     1  UNL1        0.2447
     34 C          61.4320   86.0790    8.4455 C.ar    1  UNL1        0.0714
     35 C          61.1204   86.9856    9.5992 C.ar    1  UNL1        0.1053
     36 N          59.7305   87.5166    9.4093 N.ar    1  UNL1       -0.2350
     37 C          59.1830   86.9382    8.1382 C.ar    1  UNL1        0.1343
     38 S          60.2346   86.0497    7.5425 S.2     1  UNL1       -0.0652
     39 C          64.0513   83.6100   13.4848 C.3     1  UNL1        0.0485
     40 C          63.1781   82.3906   13.5050 C.ar    1  UNL1       -0.0204
     41 C          61.9176   82.3842   14.3180 C.ar    1  UNL1       -0.0042
     42 C          61.0442   81.1648   14.3382 C.ar    1  UNL1       -0.0003
     43 C          61.4315   79.9518   13.5453 C.ar    1  UNL1       -0.0000
     44 C          62.6921   79.9582   12.7323 C.ar    1  UNL1       -0.0003
     45 C          63.5654   81.1776   12.7122 C.ar    1  UNL1       -0.0042
@<TRIPOS>BOND
     1    16    17    1
     2    17    14    1
     3    14     5    1
     4     5     6   ar
     5     6     7   ar
     6     7     8   ar
     7     8     9   ar
     8     9    10   ar
     9    10     2    1
    10     2     3    2
    11     2     4   am
    12     4     1    1
    13     1    24    1
    14    24    25    1
    15    24    27    1
    16    27    39    1
    17    39    40    1
    18    40    41   ar
    19    41    42   ar
    20    42    43   ar
    21    43    44   ar
    22    44    45   ar
    23    27    28    1
    24    28    29   am
    25    29    30    2
    26    29    32    1
    27    32    33    1
    28    33    34    1
    29    34    35   ar
    30    35    36   ar
    31    36    37   ar
    32    37    38   ar
    33     4    18    1
    34    18    19    1
    35    19    20    1
    36    19    21    1
    37    19    22    1
    38    10    11   ar
    39    11    12   ar
    40    12    13   ar
    41    13     5   ar
    42    12     7   ar
    43    45    40   ar
    44    38    34   ar
    45    14    15    1
    46    25    26    1
    47    28    31    1
    48    22    23    1
@<TRIPOS>MOLECULE
*****
 45 48 0 0 0
SMALL
GASTEIGER

@<TRIPOS>ATOM
      1 C          63.1353   88.6943   11.9341 C.3     1  UNL1        0.1246
      2 C          63.4847   86.4862   13.2579 C.2     1  UNL1        0.2493
      3 O          64.4991   87.1681   14.1274 O.2     1  UNL1       -0.2699
      4 N          62.8028   87.2493   12.1612 N.am    1  UNL1       -0.2711
      5 C          62.6386   80.2042   12.4983 C.ar    1  UNL1        0.2891
      6 N          62.2506   80.6718   13.8697 N.ar    1  UNL1       -0.1948
      7 C          62.4874   82.1514   13.9392 C.ar    1  UNL1        0.1202
      8 C          62.2855   83.1495   15.0406 C.ar    1  UNL1        0.0225
      9 C          62.6180   84.5944   14.8134 C.ar    1  UNL1        0.0063
     10 C          63.1523   85.0412   13.4850 C.ar    1  UNL1        0.0567
     11 C          63.3542   84.0431   12.3836 C.ar    1  UNL1        0.0437
     12 C          63.0217   82.5982   12.6107 C.ar    1  UNL1        0.1662
     13 O          63.1151   81.3948   11.7202 O.2     1  UNL1       -0.4239
     14 N          62.5632   78.7937   11.9935 N.pl3   1  UNL1       -0.2884
     15 H          62.3596   78.0584   12.6158 H       1  UNL1        0.1511
     16 C          62.6498   79.5963    9.5241 C.3     1  UNL1        0.0231
     17 C          62.7979   78.5034   10.5408 C.3     1  UNL1        0.0911
     18 C          61.7885   86.5675   11.2916 C.3     1  UNL1        0.1205
     19 C          61.2541   87.2638   10.0753 C.3     1  UNL1        0.1067
     20 C          62.3040   86.6004    9.2342 C.3     1  UNL1        0.0311
     21 C          60.2042   87.9272   10.9164 C.3     1  UNL1        0.0311
     22 O          60.7197   87.9601    8.8589 O.3     1  UNL1       -0.3851
     23 H          61.2446   87.7057    8.0839 H       1  UNL1        0.2103
     24 C          62.9865   89.6829   13.0524 C.3     1  UNL1        0.1484
     25 O          61.7274   89.7096   13.8672 O.3     1  UNL1       -0.3810
     26 H          61.7945   90.4019   14.5433 H       1  UNL1        0.2105
     27 C          64.0968   90.6447   13.3558 C.3     1  UNL1        0.1075
     28 N          64.5905   91.5800   12.2921 N.am    1  UNL1       -0.2695
     29 C          63.7297   91.8835   11.1018 C.2     1  UNL1        0.4020
     30 O          62.3752   91.2517   10.9752 O.2     1  UNL1       -0.2264
     31 H          65.4795   91.9947   12.3753 H       1  UNL1        0.1528
     32 O          64.2234   92.8188   10.0382 O.3     1  UNL1       -0.4291
     33 C          65.2673   93.8445   10.3670 C.3     1  UNL1        0.2447
     34 C          66.7002   93.6022    9.9954 C.ar    1  UNL1        0.0714
     35 C          67.6553   94.6237    9.4529 C.ar    1  UNL1        0.1053
     36 N          68.9750   93.9486    9.2233 N.ar    1  UNL1       -0.2350
     37 C          68.8355   92.5098    9.6238 C.ar    1  UNL1        0.1343
     38 S          67.4296   92.2956   10.1010 S.2     1  UNL1       -0.0652
     39 C          64.7135   90.6712   14.7230 C.3     1  UNL1        0.0485
     40 C          65.9891   91.4252   14.9559 C.ar    1  UNL1       -0.0204
     41 C          67.1513   91.2381   14.0263 C.ar    1  UNL1       -0.0042
     42 C          68.4270   91.9921   14.2592 C.ar    1  UNL1       -0.0003
     43 C          68.5403   92.9333   15.4217 C.ar    1  UNL1       -0.0000
     44 C          67.3780   93.1204   16.3513 C.ar    1  UNL1       -0.0003
     45 C          66.1024   92.3663   16.1184 C.ar    1  UNL1       -0.0042
@<TRIPOS>BOND
     1    16    17    1
     2    17    14    1
     3    14     5    1
     4     5     6   ar
     5     6     7   ar
     6     7     8   ar
     7     8     9   ar
     8     9    10   ar
     9    10     2    1
    10     2     3    2
    11     2     4   am
    12     4     1    1
    13     1    24    1
    14    24    25    1
    15    24    27    1
    16    27    39    1
    17    39    40    1
    18    40    41   ar
    19    41    42   ar
    20    42    43   ar
    21    43    44   ar
    22    44    45   ar
    23    27    28    1
    24    28    29   am
    25    29    30    2
    26    29    32    1
    27    32    33    1
    28    33    34    1
    29    34    35   ar
    30    35    36   ar
    31    36    37   ar
    32    37    38   ar
    33     4    18    1
    34    18    19    1
    35    19    20    1
    36    19    21    1
    37    19    22    1
    38    10    11   ar
    39    11    12   ar
    40    12    13   ar
    41    13     5   ar
    42    12     7   ar
    43    45    40   ar
    44    38    34   ar
    45    14    15    1
    46    25    26    1
    47    28    31    1
    48    22    23    1
@<TRIPOS>MOLECULE
*****
 45 48 0 0 0
SMALL
GASTEIGER

@<TRIPOS>ATOM
      1 C          62.5467   88.5821   10.7000 C.3     1  UNL1        0.1246
      2 C          63.0520   86.6453   12.3564 C.2     1  UNL1        0.2493
      3 O          63.9213   87.5629   13.1641 O.2     1  UNL1       -0.2699
      4 N          62.3647   87.1549   11.1244 N.am    1  UNL1       -0.2711
      5 C          62.6045   80.2770   12.3944 C.ar    1  UNL1        0.2891
      6 N          62.3790   80.8743   13.7517 N.ar    1  UNL1       -0.1948
      7 C          62.5059   82.3639   13.6297 C.ar    1  UNL1        0.1202
      8 C          62.3840   83.4676   14.6381 C.ar    1  UNL1        0.0225
      9 C          62.5660   84.8947   14.2137 C.ar    1  UNL1        0.0063
     10 C          62.8699   85.2181   12.7808 C.ar    1  UNL1        0.0567
     11 C          62.9919   84.1144   11.7724 C.ar    1  UNL1        0.0437
     12 C          62.8098   82.6873   12.1968 C.ar    1  UNL1        0.1662
     13 O          62.8707   81.3976   11.4334 O.2     1  UNL1       -0.4239
     14 N          62.5698   78.8158   12.0572 N.pl3   1  UNL1       -0.2884
     15 H          62.4177   78.1504   12.7666 H       1  UNL1        0.1511
     16 C          62.6830   79.3639    9.5201 C.3     1  UNL1        0.0231
     17 C          62.7667   78.3685   10.6391 C.3     1  UNL1        0.0911
     18 C          61.4954   86.2373   10.3167 C.3     1  UNL1        0.1205
     19 C          60.8826   86.7197    9.0354 C.3     1  UNL1        0.1067
     20 C          59.8758   87.5123    9.8153 C.3     1  UNL1        0.0311
     21 C          61.8893   85.9272    8.2555 C.3     1  UNL1        0.0311
     22 O          60.2697   87.2022    7.7541 O.3     1  UNL1       -0.3851
     23 H          59.5237   87.7894    7.9535 H       1  UNL1        0.2103
     24 C          62.3488   89.6904   11.6912 C.3     1  UNL1        0.1484
     25 O          61.1141   89.7238   12.5422 O.3     1  UNL1       -0.3810
     26 H          61.1432   90.4995   13.1239 H       1  UNL1        0.2105
     27 C          63.3857   90.7652   11.8314 C.3     1  UNL1        0.1075
     28 N          64.1789   90.8813   13.0992 N.am    1  UNL1       -0.2695
     29 C          63.5655   90.4782   14.4073 C.2     1  UNL1        0.4020
     30 O          62.1589   89.9589   14.4476 O.2     1  UNL1       -0.2264
     31 H          65.1021   91.2222   13.0727 H       1  UNL1        0.1528
     32 O          64.3587   90.5944   15.6751 O.3     1  UNL1       -0.4291
     33 C          64.9117   91.9240   16.0946 C.3     1  UNL1        0.2447
     34 C          66.2024   92.4175   15.5108 C.ar    1  UNL1        0.0714
     35 C          66.3885   92.9814   14.1334 C.ar    1  UNL1        0.1053
     36 N          67.8346   93.3461   13.9732 N.ar    1  UNL1       -0.2350
     37 C          68.5423   93.0076   15.2517 C.ar    1  UNL1        0.1343
     38 S          67.5336   92.4337   16.2021 S.2     1  UNL1       -0.0652
     39 C          63.6294   91.7239   10.7037 C.3     1  UNL1        0.0485
     40 C          64.9319   92.4625   10.6155 C.ar    1  UNL1       -0.0204
     41 C          66.1994   91.7155   10.3235 C.ar    1  UNL1       -0.0042
     42 C          67.5020   92.4541   10.2352 C.ar    1  UNL1       -0.0003
     43 C          67.5370   93.9398   10.4390 C.ar    1  UNL1       -0.0000
     44 C          66.2694   94.6868   10.7310 C.ar    1  UNL1       -0.0003
     45 C          64.9669   93.9482   10.8192 C.ar    1  UNL1       -0.0042
@<TRIPOS>BOND
     1    16    17    1
     2    17    14    1
     3    14     5    1
     4     5     6   ar
     5     6     7   ar
     6     7     8   ar
     7     8     9   ar
     8     9    10   ar
     9    10     2    1
    10     2     3    2
    11     2     4   am
    12     4     1    1
    13     1    24    1
    14    24    25    1
    15    24    27    1
    16    27    39    1
    17    39    40    1
    18    40    41   ar
    19    41    42   ar
    20    42    43   ar
    21    43    44   ar
    22    44    45   ar
    23    27    28    1
    24    28    29   am
    25    29    30    2
    26    29    32    1
    27    32    33    1
    28    33    34    1
    29    34    35   ar
    30    35    36   ar
    31    36    37   ar
    32    37    38   ar
    33     4    18    1
    34    18    19    1
    35    19    20    1
    36    19    21    1
    37    19    22    1
    38    10    11   ar
    39    11    12   ar
    40    12    13   ar
    41    13     5   ar
    42    12     7   ar
    43    45    40   ar
    44    38    34   ar
    45    14    15    1
    46    25    26    1
    47    28    31    1
    48    22    23    1
@<TRIPOS>MOLECULE
*****
 45 48 0 0 0
SMALL
GASTEIGER

@<TRIPOS>ATOM
      1 C          63.8170   89.3284   14.3235 C.3     1  UNL1        0.1246
      2 C          63.6794   86.9485   13.2904 C.2     1  UNL1        0.2493
      3 O          63.4071   87.5491   11.9431 O.2     1  UNL1       -0.2699
      4 N          63.8843   87.8381   14.4806 N.am    1  UNL1       -0.2711
      5 C          62.7456   80.6701   12.6068 C.ar    1  UNL1        0.2891
      6 N          63.7380   80.9865   13.6861 N.ar    1  UNL1       -0.1948
      7 C          63.8812   82.4778   13.7616 C.ar    1  UNL1        0.1202
      8 C          64.7178   83.3627   14.6373 C.ar    1  UNL1        0.0225
      9 C          64.6505   84.8529   14.4802 C.ar    1  UNL1        0.0063
     10 C          63.7466   85.4582   13.4475 C.ar    1  UNL1        0.0567
     11 C          62.9100   84.5732   12.5718 C.ar    1  UNL1        0.0437
     12 C          62.9772   83.0830   12.7289 C.ar    1  UNL1        0.1662
     13 O          62.2755   81.9658   12.0151 O.2     1  UNL1       -0.4239
     14 N          62.3014   79.2988   12.1919 N.pl3   1  UNL1       -0.2884
     15 H          61.7093   78.7747   12.7784 H       1  UNL1        0.1511
     16 C          62.7608   79.5799    9.6502 C.3     1  UNL1        0.0231
     17 C          62.7594   78.7259   10.8834 C.3     1  UNL1        0.0911
     18 C          64.1565   87.2374   15.8279 C.3     1  UNL1        0.1205
     19 C          63.0816   87.2237   16.8739 C.3     1  UNL1        0.1067
     20 C          63.1413   88.7202   16.9550 C.3     1  UNL1        0.0311
     21 C          63.0219   85.7271   16.7928 C.3     1  UNL1        0.0311
     22 O          62.0066   87.2099   17.9200 O.3     1  UNL1       -0.3851
     23 H          61.8113   88.1194   18.1949 H       1  UNL1        0.2103
     24 C          62.7217   89.9478   13.5072 C.3     1  UNL1        0.1484
     25 O          61.2957   89.8388   13.9598 O.3     1  UNL1       -0.3810
     26 H          60.7191   90.2898   13.3233 H       1  UNL1        0.2105
     27 C          63.0523   90.6763   12.2384 C.3     1  UNL1        0.1075
     28 N          62.6655   90.0886   10.9136 N.am    1  UNL1       -0.2695
     29 C          61.2173   89.9542   10.5468 C.2     1  UNL1        0.4020
     30 O          60.1559   90.4075   11.5048 O.2     1  UNL1       -0.2264
     31 H          63.3622   89.7911   10.2849 H       1  UNL1        0.1528
     32 O          60.8306   89.3665    9.2220 O.3     1  UNL1       -0.4291
     33 C          60.1819   88.0154    9.1615 C.3     1  UNL1        0.2447
     34 C          60.9079   86.8623    8.5343 C.ar    1  UNL1        0.0714
     35 C          62.3047   86.4200    8.8556 C.ar    1  UNL1        0.1053
     36 N          62.6246   85.2334    7.9956 N.ar    1  UNL1       -0.2350
     37 C          61.4254   84.9423    7.1428 C.ar    1  UNL1        0.1343
     38 S          60.3644   85.9490    7.4757 S.2     1  UNL1       -0.0652
     39 C          63.7696   91.9925   12.2943 C.3     1  UNL1        0.0485
     40 C          65.2534   92.0476   12.0816 C.ar    1  UNL1       -0.0204
     41 C          65.8053   92.3215   10.7140 C.ar    1  UNL1       -0.0042
     42 C          67.2891   92.3767   10.5012 C.ar    1  UNL1       -0.0003
     43 C          68.2210   92.1578   11.6560 C.ar    1  UNL1       -0.0000
     44 C          67.6691   91.8839   13.0237 C.ar    1  UNL1       -0.0003
     45 C          66.1853   91.8288   13.2364 C.ar    1  UNL1       -0.0042
@<TRIPOS>BOND
     1    16    17    1
     2    17    14    1
     3    14     5    1
     4     5     6   ar
     5     6     7   ar
     6     7     8   ar
     7     8     9   ar
     8     9    10   ar
     9    10     2    1
    10     2     3    2
    11     2     4   am
    12     4     1    1
    13     1    24    1
    14    24    25    1
    15    24    27    1
    16    27    39    1
    17    39    40    1
    18    40    41   ar
    19    41    42   ar
    20    42    43   ar
    21    43    44   ar
    22    44    45   ar
    23    27    28    1
    24    28    29   am
    25    29    30    2
    26    29    32    1
    27    32    33    1
    28    33    34    1
    29    34    35   ar
    30    35    36   ar
    31    36    37   ar
    32    37    38   ar
    33     4    18    1
    34    18    19    1
    35    19    20    1
    36    19    21    1
    37    19    22    1
    38    10    11   ar
    39    11    12   ar
    40    12    13   ar
    41    13     5   ar
    42    12     7   ar
    43    45    40   ar
    44    38    34   ar
    45    14    15    1
    46    25    26    1
    47    28    31    1
    48    22    23    1
