@<TRIPOS>MOLECULE
*****
 38 43 0 0 0
SMALL
GASTEIGER

@<TRIPOS>ATOM
      1 C          64.2210   88.6610   14.5355 C.ar    1  UNL1        0.0246
      2 C          64.9004   87.6461   15.4063 C.ar    1  UNL1        0.0990
      3 N          64.8682   86.1942   15.0310 N.ar    1  UNL1       -0.2423
      4 C          64.1566   85.7572   13.7849 C.ar    1  UNL1        0.0984
      5 C          63.9582   84.4063   13.1637 C.ar    1  UNL1        0.0348
      6 C          64.4041   83.0356   13.5784 C.ar    1  UNL1        0.0027
      7 C          64.0481   81.8449   12.7384 C.ar    1  UNL1       -0.0019
      8 C          63.2461   82.0251   11.4837 C.ar    1  UNL1        0.0031
      9 C          62.8001   83.3959   11.0690 C.ar    1  UNL1        0.0152
     10 C          63.1561   84.5865   11.9090 C.ar    1  UNL1        0.0613
     11 N          62.8589   86.0486   11.7547 N.ar    1  UNL1       -0.3240
     12 C          63.4772   86.7722   12.9141 C.ar    1  UNL1        0.0780
     13 C          63.5094   88.2241   13.2894 C.ar    1  UNL1        0.0204
     14 C          63.0431   89.9571   17.2892 C.3     1  UNL1        0.0557
     15 C          63.7118   90.7087   16.1765 C.ar    1  UNL1        0.1006
     16 N          63.9564   92.1880   16.1342 N.ar    1  UNL1       -0.0817
     17 O          64.6491   92.5066   14.8424 O.2     1  UNL1       -0.3581
     18 C          64.8324   91.2241   14.0863 C.ar    1  UNL1        0.1544
     19 C          65.4812   91.0784   12.7417 C.3     1  UNL1        0.0754
     20 C          64.2532   90.1130   14.9108 C.ar    1  UNL1        0.0512
     21 C          62.8900   80.8344   10.6437 C.3     1  UNL1        0.1072
     22 C          62.5521   80.0607   11.8835 C.3     1  UNL1        0.0339
     23 C          63.2278   81.6081    9.4039 C.3     1  UNL1        0.0339
     24 O          62.5339   79.6438    9.8037 O.3     1  UNL1       -0.3827
     25 H          62.2512   78.9154   10.3785 H       1  UNL1        0.2107
     26 C          62.0801   86.6770   10.6373 C.3     1  UNL1        0.1080
     27 C          61.9972   85.9942    9.3043 C.ar    1  UNL1       -0.0018
     28 C          63.2209   85.3660    8.7060 C.ar    1  UNL1       -0.0025
     29 C          63.1379   84.6832    7.3729 C.ar    1  UNL1       -0.0003
     30 C          61.8313   84.6287    6.6382 C.ar    1  UNL1       -0.0000
     31 C          60.6076   85.2569    7.2365 C.ar    1  UNL1       -0.0003
     32 C          60.6906   85.9396    8.5696 C.ar    1  UNL1       -0.0025
     33 C          61.3841   87.9881   10.8529 C.3     1  UNL1        0.0300
     34 C          61.9538   89.2452   10.2653 C.3     1  UNL1        0.0344
     35 C          61.2578   90.5563   10.4809 C.3     1  UNL1        0.1422
     36 O          59.9921   90.6105   11.2840 O.3     1  UNL1       -0.3538
     37 C          59.4224   89.3534   11.8716 C.3     1  UNL1        0.1422
     38 C          60.1184   88.0423   11.6560 C.3     1  UNL1        0.0344
@<TRIPOS>BOND
     1    14    15    1
     2    15    16   ar
     3    16    17   ar
     4    17    18   ar
     5    18    19    1
     6    18    20   ar
     7    20     1    1
     8     1     2   ar
     9     2     3   ar
    10     3     4   ar
    11     4     5   ar
    12     5     6   ar
    13     6     7   ar
    14     7     8   ar
    15     8    21    1
    16    21    22    1
    17    21    23    1
    18    21    24    1
    19     8     9   ar
    20     9    10   ar
    21    10    11   ar
    22    11    26    1
    23    26    27    1
    24    27    28   ar
    25    28    29   ar
    26    29    30   ar
    27    30    31   ar
    28    31    32   ar
    29    26    33    1
    30    33    34    1
    31    34    35    1
    32    35    36    1
    33    36    37    1
    34    37    38    1
    35    11    12   ar
    36    12    13   ar
    37    20    15   ar
    38    13     1   ar
    39    12     4   ar
    40    10     5   ar
    41    32    27   ar
    42    38    33    1
    43    24    25    1
@<TRIPOS>MOLECULE
*****
 38 43 0 0 0
SMALL
GASTEIGER

@<TRIPOS>ATOM
      1 C          64.8839   90.1371   13.7489 C.ar    1  UNL1        0.0246
      2 C          65.5626   89.3903   14.8586 C.ar    1  UNL1        0.0990
      3 N          65.3111   87.9225   15.0384 N.ar    1  UNL1       -0.2423
      4 C          64.3809   87.2016   14.1084 C.ar    1  UNL1        0.0984
      5 C          63.9417   85.7689   14.0394 C.ar    1  UNL1        0.0348
      6 C          64.2843   84.5727   14.8770 C.ar    1  UNL1        0.0027
      7 C          63.6767   83.2379   14.5623 C.ar    1  UNL1       -0.0019
      8 C          62.7266   83.0993   13.4099 C.ar    1  UNL1        0.0031
      9 C          62.3840   84.2956   12.5723 C.ar    1  UNL1        0.0152
     10 C          62.9916   85.6303   12.8871 C.ar    1  UNL1        0.0613
     11 N          62.8435   86.9773   12.2439 N.ar    1  UNL1       -0.3240
     12 C          63.7021   87.9484   12.9987 C.ar    1  UNL1        0.0780
     13 C          63.9536   89.4161   12.8189 C.ar    1  UNL1        0.0204
     14 C          64.5899   91.8062   10.9601 C.3     1  UNL1        0.0557
     15 C          65.0002   92.3721   12.2872 C.ar    1  UNL1        0.1006
     16 N          65.3475   93.8046   12.5655 N.ar    1  UNL1       -0.0817
     17 O          65.6973   93.9227   14.0194 O.2     1  UNL1       -0.3581
     18 C          65.5661   92.5633   14.6396 C.ar    1  UNL1        0.1544
     19 C          65.8211   92.2221   16.0779 C.3     1  UNL1        0.0754
     20 C          65.1354   91.6049   13.5691 C.ar    1  UNL1        0.0512
     21 C          62.1189   81.7644   13.0951 C.3     1  UNL1        0.1072
     22 C          62.7121   81.8190   11.7185 C.3     1  UNL1        0.0339
     23 C          61.5258   81.7098   14.4718 C.3     1  UNL1        0.0339
     24 O          61.5113   80.4296   12.7804 O.3     1  UNL1       -0.3827
     25 H          61.7419   80.1752   11.8733 H       1  UNL1        0.2107
     26 C          61.9871   87.2971   11.0546 C.3     1  UNL1        0.1080
     27 C          62.0644   86.4438    9.8234 C.ar    1  UNL1       -0.0018
     28 C          60.9896   86.5322    8.7808 C.ar    1  UNL1       -0.0025
     29 C          61.0670   85.6788    7.5496 C.ar    1  UNL1       -0.0003
     30 C          62.2192   84.7369    7.3611 C.ar    1  UNL1       -0.0000
     31 C          63.2940   84.6485    8.4037 C.ar    1  UNL1       -0.0003
     32 C          63.2166   85.5019    9.6348 C.ar    1  UNL1       -0.0025
     33 C          61.0534   88.4703   11.0965 C.3     1  UNL1        0.0300
     34 C          61.3856   89.7207   10.3375 C.3     1  UNL1        0.0344
     35 C          60.4519   90.8939   10.3794 C.3     1  UNL1        0.1422
     36 O          59.1859   90.8167   11.1802 O.3     1  UNL1       -0.3538
     37 C          58.8537   89.5663   11.9392 C.3     1  UNL1        0.1422
     38 C          59.7874   88.3931   11.8973 C.3     1  UNL1        0.0344
@<TRIPOS>BOND
     1    14    15    1
     2    15    16   ar
     3    16    17   ar
     4    17    18   ar
     5    18    19    1
     6    18    20   ar
     7    20     1    1
     8     1     2   ar
     9     2     3   ar
    10     3     4   ar
    11     4     5   ar
    12     5     6   ar
    13     6     7   ar
    14     7     8   ar
    15     8    21    1
    16    21    22    1
    17    21    23    1
    18    21    24    1
    19     8     9   ar
    20     9    10   ar
    21    10    11   ar
    22    11    26    1
    23    26    27    1
    24    27    28   ar
    25    28    29   ar
    26    29    30   ar
    27    30    31   ar
    28    31    32   ar
    29    26    33    1
    30    33    34    1
    31    34    35    1
    32    35    36    1
    33    36    37    1
    34    37    38    1
    35    11    12   ar
    36    12    13   ar
    37    20    15   ar
    38    13     1   ar
    39    12     4   ar
    40    10     5   ar
    41    32    27   ar
    42    38    33    1
    43    24    25    1
@<TRIPOS>MOLECULE
*****
 38 43 0 0 0
SMALL
GASTEIGER

@<TRIPOS>ATOM
      1 C          64.2055   88.5958   14.5300 C.ar    1  UNL1        0.0246
      2 C          64.8742   87.5737   15.4007 C.ar    1  UNL1        0.0990
      3 N          64.8377   86.1237   15.0187 N.ar    1  UNL1       -0.2423
      4 C          64.1324   85.6957   13.7660 C.ar    1  UNL1        0.0984
      5 C          63.9317   84.3485   13.1374 C.ar    1  UNL1        0.0348
      6 C          64.3684   82.9739   13.5490 C.ar    1  UNL1        0.0027
      7 C          64.0124   81.7886   12.7014 C.ar    1  UNL1       -0.0019
      8 C          63.2197   81.9782   11.4421 C.ar    1  UNL1        0.0031
      9 C          62.7830   83.3529   11.0306 C.ar    1  UNL1        0.0152
     10 C          63.1390   84.5380   11.8782 C.ar    1  UNL1        0.0613
     11 N          62.8498   86.0023   11.7285 N.ar    1  UNL1       -0.3240
     12 C          63.4637   86.7177   12.8952 C.ar    1  UNL1        0.0780
     13 C          63.5003   88.1678   13.2772 C.ar    1  UNL1        0.0204
     14 C          65.4617   91.0195   12.7418 C.3     1  UNL1        0.0557
     15 C          64.8195   91.1599   14.0901 C.ar    1  UNL1        0.1006
     16 N          64.6419   92.4391   14.8531 N.ar    1  UNL1       -0.0817
     17 O          63.9547   92.1156   16.1466 O.2     1  UNL1       -0.3581
     18 C          63.7076   90.6366   16.1830 C.ar    1  UNL1        0.1544
     19 C          63.0428   89.8809   17.2952 C.3     1  UNL1        0.0754
     20 C          64.2421   90.0459   14.9120 C.ar    1  UNL1        0.0512
     21 C          62.8636   80.7929   10.5944 C.3     1  UNL1        0.1072
     22 C          62.6671   79.9673   11.8313 C.3     1  UNL1        0.0339
     23 C          63.0601   81.6185    9.3576 C.3     1  UNL1        0.0339
     24 O          62.5075   79.6078    9.7467 O.3     1  UNL1       -0.3827
     25 H          62.3110   78.8489   10.3181 H       1  UNL1        0.2107
     26 C          62.0815   86.6393   10.6087 C.3     1  UNL1        0.1080
     27 C          61.3995   87.9581   10.8221 C.ar    1  UNL1       -0.0018
     28 C          61.9893   89.2098   10.2430 C.ar    1  UNL1       -0.0025
     29 C          61.3073   90.5287   10.4565 C.ar    1  UNL1       -0.0003
     30 C          60.0355   90.5958   11.2490 C.ar    1  UNL1       -0.0000
     31 C          59.4457   89.3441   11.8281 C.ar    1  UNL1       -0.0003
     32 C          60.1277   88.0253   11.6146 C.ar    1  UNL1       -0.0025
     33 C          61.9951   85.9574    9.2755 C.3     1  UNL1        0.0300
     34 C          63.2212   85.3458    8.6650 C.3     1  UNL1        0.0344
     35 C          63.1348   84.6640    7.3317 C.3     1  UNL1        0.1422
     36 O          61.8223   84.5936    6.6089 O.3     1  UNL1       -0.3538
     37 C          60.5962   85.2052    7.2194 C.3     1  UNL1        0.1422
     38 C          60.6826   85.8871    8.5527 C.3     1  UNL1        0.0344
@<TRIPOS>BOND
     1    14    15    1
     2    15    16   ar
     3    16    17   ar
     4    17    18   ar
     5    18    19    1
     6    18    20   ar
     7    20     1    1
     8     1     2   ar
     9     2     3   ar
    10     3     4   ar
    11     4     5   ar
    12     5     6   ar
    13     6     7   ar
    14     7     8   ar
    15     8    21    1
    16    21    22    1
    17    21    23    1
    18    21    24    1
    19     8     9   ar
    20     9    10   ar
    21    10    11   ar
    22    11    26    1
    23    26    27    1
    24    27    28   ar
    25    28    29   ar
    26    29    30   ar
    27    30    31   ar
    28    31    32   ar
    29    26    33    1
    30    33    34    1
    31    34    35    1
    32    35    36    1
    33    36    37    1
    34    37    38    1
    35    11    12   ar
    36    12    13   ar
    37    20    15   ar
    38    13     1   ar
    39    12     4   ar
    40    10     5   ar
    41    32    27   ar
    42    38    33    1
    43    24    25    1
@<TRIPOS>MOLECULE
*****
 38 43 0 0 0
SMALL
GASTEIGER

@<TRIPOS>ATOM
      1 C          63.1868   82.8843   12.7976 C.ar    1  UNL1        0.0246
      2 C          64.0870   83.0250   13.9891 C.ar    1  UNL1        0.0990
      3 N          64.5096   84.3874   14.4530 N.ar    1  UNL1       -0.2423
      4 C          64.0320   85.6091   13.7253 C.ar    1  UNL1        0.0984
      5 C          64.2801   87.0715   13.9487 C.ar    1  UNL1        0.0348
      6 C          65.0896   87.8069   14.9752 C.ar    1  UNL1        0.0027
      7 C          65.1521   89.3053   14.9483 C.ar    1  UNL1       -0.0019
      8 C          64.4052   90.0684   13.8948 C.ar    1  UNL1        0.0031
      9 C          63.5957   89.3329   12.8682 C.ar    1  UNL1        0.0152
     10 C          63.5332   87.8345   12.8952 C.ar    1  UNL1        0.0613
     11 N          62.8235   86.8437   12.0208 N.ar    1  UNL1       -0.3240
     12 C          63.1318   85.4683   12.5338 C.ar    1  UNL1        0.0780
     13 C          62.7092   84.1059   12.0699 C.ar    1  UNL1        0.0204
     14 C          63.9226   81.5222    9.9248 C.3     1  UNL1        0.0557
     15 C          63.1023   80.8958   11.0133 C.ar    1  UNL1        0.1006
     16 N          62.4763   79.5333   10.9723 N.ar    1  UNL1       -0.0817
     17 O          61.7511   79.3172   12.2675 O.2     1  UNL1       -0.3581
     18 C          61.9290   80.5462   13.1089 C.ar    1  UNL1        0.1544
     19 C          61.3700   80.7618   14.4840 C.3     1  UNL1        0.0754
     20 C          62.7641   81.5218   12.3337 C.ar    1  UNL1        0.0512
     21 C          64.4677   91.5669   13.8679 C.3     1  UNL1        0.1072
     22 C          64.9994   91.5700   15.2705 C.3     1  UNL1        0.0339
     23 C          63.9361   91.5638   12.4653 C.3     1  UNL1        0.0339
     24 O          64.5303   93.0653   13.8409 O.3     1  UNL1       -0.3827
     25 H          64.8679   93.3902   14.6902 H       1  UNL1        0.2107
     26 C          61.9575   87.1708   10.8405 C.3     1  UNL1        0.1080
     27 C          62.0242   86.3246    9.6038 C.ar    1  UNL1       -0.0018
     28 C          63.2786   85.5691    9.2786 C.ar    1  UNL1       -0.0025
     29 C          63.3451   84.7228    8.0418 C.ar    1  UNL1       -0.0003
     30 C          62.1573   84.6320    7.1304 C.ar    1  UNL1       -0.0000
     31 C          60.9029   85.3874    7.4556 C.ar    1  UNL1       -0.0003
     32 C          60.8363   86.2337    8.6923 C.ar    1  UNL1       -0.0025
     33 C          61.0248   88.3443   10.8968 C.3     1  UNL1        0.0300
     34 C          61.2049   89.4916    9.9476 C.3     1  UNL1        0.0344
     35 C          60.2722   90.6651   10.0039 C.3     1  UNL1        0.1422
     36 O          59.1595   90.6911   11.0095 O.3     1  UNL1       -0.3538
     37 C          58.9795   89.5437   11.9587 C.3     1  UNL1        0.1422
     38 C          59.9121   88.3703   11.9024 C.3     1  UNL1        0.0344
@<TRIPOS>BOND
     1    14    15    1
     2    15    16   ar
     3    16    17   ar
     4    17    18   ar
     5    18    19    1
     6    18    20   ar
     7    20     1    1
     8     1     2   ar
     9     2     3   ar
    10     3     4   ar
    11     4     5   ar
    12     5     6   ar
    13     6     7   ar
    14     7     8   ar
    15     8    21    1
    16    21    22    1
    17    21    23    1
    18    21    24    1
    19     8     9   ar
    20     9    10   ar
    21    10    11   ar
    22    11    26    1
    23    26    27    1
    24    27    28   ar
    25    28    29   ar
    26    29    30   ar
    27    30    31   ar
    28    31    32   ar
    29    26    33    1
    30    33    34    1
    31    34    35    1
    32    35    36    1
    33    36    37    1
    34    37    38    1
    35    11    12   ar
    36    12    13   ar
    37    20    15   ar
    38    13     1   ar
    39    12     4   ar
    40    10     5   ar
    41    32    27   ar
    42    38    33    1
    43    24    25    1
@<TRIPOS>MOLECULE
*****
 38 43 0 0 0
SMALL
GASTEIGER

@<TRIPOS>ATOM
      1 C          65.6637   91.5611   13.8145 C.ar    1  UNL1        0.0246
      2 C          65.3020   92.4651   12.6735 C.ar    1  UNL1        0.0990
      3 N          64.3376   91.9986   11.6237 N.ar    1  UNL1       -0.2423
      4 C          63.7349   90.6280   11.7148 C.ar    1  UNL1        0.0984
      5 C          62.7626   89.8986   10.8357 C.ar    1  UNL1        0.0348
      6 C          62.0642   90.2931    9.5683 C.ar    1  UNL1        0.0027
      7 C          61.1266   89.3327    8.8985 C.ar    1  UNL1       -0.0019
      8 C          60.8875   87.9779    9.4961 C.ar    1  UNL1        0.0031
      9 C          61.5860   87.5834   10.7636 C.ar    1  UNL1        0.0152
     10 C          62.5236   88.5437   11.4333 C.ar    1  UNL1        0.0613
     11 N          63.3481   88.4358   12.6818 N.ar    1  UNL1       -0.3240
     12 C          64.0967   89.7239   12.8557 C.ar    1  UNL1        0.0780
     13 C          65.0611   90.1904   13.9055 C.ar    1  UNL1        0.0204
     14 C          68.8969   91.8331   13.4643 C.3     1  UNL1        0.0557
     15 C          68.1143   92.1526   14.7034 C.ar    1  UNL1        0.1006
     16 N          68.6803   92.6533   15.9991 N.ar    1  UNL1       -0.0817
     17 O          67.5441   92.8377   16.9609 O.2     1  UNL1       -0.3581
     18 C          66.2758   92.4510   16.2596 C.ar    1  UNL1        0.1544
     19 C          64.8972   92.4822   16.8498 C.3     1  UNL1        0.0754
     20 C          66.6282   92.0276   14.8644 C.ar    1  UNL1        0.0512
     21 C          59.9499   87.0175    8.8263 C.3     1  UNL1        0.1072
     22 C          59.0185   88.1491    8.5072 C.3     1  UNL1        0.0339
     23 C          60.8813   85.8858    9.1454 C.3     1  UNL1        0.0339
     24 O          59.0123   86.0570    8.1565 O.3     1  UNL1       -0.3827
     25 H          58.2424   86.5400    7.8177 H       1  UNL1        0.2107
     26 C          63.4126   87.2482   13.5958 C.3     1  UNL1        0.1080
     27 C          63.6053   85.8737   13.0272 C.ar    1  UNL1       -0.0018
     28 C          62.7287   85.3953   11.9079 C.ar    1  UNL1       -0.0025
     29 C          62.9214   84.0206   11.3393 C.ar    1  UNL1       -0.0003
     30 C          63.9908   83.1244   11.8900 C.ar    1  UNL1       -0.0000
     31 C          64.8674   83.6027   13.0092 C.ar    1  UNL1       -0.0003
     32 C          64.6747   84.9773   13.5778 C.ar    1  UNL1       -0.0025
     33 C          63.2844   87.4352   15.0786 C.3     1  UNL1        0.0300
     34 C          63.2443   88.8175   15.6595 C.3     1  UNL1        0.0344
     35 C          63.1161   89.0045   17.1423 C.3     1  UNL1        0.1422
     36 O          63.0281   87.8091   18.0441 O.3     1  UNL1       -0.3538
     37 C          63.0683   86.4268   17.4632 C.3     1  UNL1        0.1422
     38 C          63.1964   86.2398   15.9804 C.3     1  UNL1        0.0344
@<TRIPOS>BOND
     1    14    15    1
     2    15    16   ar
     3    16    17   ar
     4    17    18   ar
     5    18    19    1
     6    18    20   ar
     7    20     1    1
     8     1     2   ar
     9     2     3   ar
    10     3     4   ar
    11     4     5   ar
    12     5     6   ar
    13     6     7   ar
    14     7     8   ar
    15     8    21    1
    16    21    22    1
    17    21    23    1
    18    21    24    1
    19     8     9   ar
    20     9    10   ar
    21    10    11   ar
    22    11    26    1
    23    26    27    1
    24    27    28   ar
    25    28    29   ar
    26    29    30   ar
    27    30    31   ar
    28    31    32   ar
    29    26    33    1
    30    33    34    1
    31    34    35    1
    32    35    36    1
    33    36    37    1
    34    37    38    1
    35    11    12   ar
    36    12    13   ar
    37    20    15   ar
    38    13     1   ar
    39    12     4   ar
    40    10     5   ar
    41    32    27   ar
    42    38    33    1
    43    24    25    1
@<TRIPOS>MOLECULE
*****
 38 43 0 0 0
SMALL
GASTEIGER

@<TRIPOS>ATOM
      1 C          65.6089   91.5137   13.8316 C.ar    1  UNL1        0.0246
      2 C          65.2376   92.4251   12.6996 C.ar    1  UNL1        0.0990
      3 N          64.2792   91.9582   11.6444 N.ar    1  UNL1       -0.2423
      4 C          63.6922   90.5800   11.7212 C.ar    1  UNL1        0.0984
      5 C          62.7288   89.8485   10.8340 C.ar    1  UNL1        0.0348
      6 C          62.0267   90.2478    9.5702 C.ar    1  UNL1        0.0027
      7 C          61.1005   89.2836    8.8900 C.ar    1  UNL1       -0.0019
      8 C          60.8766   87.9202    9.4738 C.ar    1  UNL1        0.0031
      9 C          61.5787   87.5209   10.7377 C.ar    1  UNL1        0.0152
     10 C          62.5049   88.4850   11.4178 C.ar    1  UNL1        0.0613
     11 N          63.3298   88.3738   12.6657 N.ar    1  UNL1       -0.3240
     12 C          64.0636   89.6686   12.8532 C.ar    1  UNL1        0.0780
     13 C          65.0219   90.1354   13.9084 C.ar    1  UNL1        0.0204
     14 C          68.8456   91.7722   13.5045 C.3     1  UNL1        0.0557
     15 C          68.0551   92.0993   14.7365 C.ar    1  UNL1        0.1006
     16 N          68.6134   92.6027   16.0345 N.ar    1  UNL1       -0.0817
     17 O          67.4708   92.7951   16.9872 O.2     1  UNL1       -0.3581
     18 C          66.2063   92.4105   16.2779 C.ar    1  UNL1        0.1544
     19 C          64.8235   92.4491   16.8578 C.3     1  UNL1        0.0754
     20 C          66.5674   91.9805   14.8869 C.ar    1  UNL1        0.0512
     21 C          59.9504   86.9560    8.7936 C.3     1  UNL1        0.1072
     22 C          60.8992   85.8334    9.0927 C.3     1  UNL1        0.0339
     23 C          59.0015   88.0785    8.4945 C.3     1  UNL1        0.0339
     24 O          59.0242   85.9918    8.1134 O.3     1  UNL1       -0.3827
     25 H          59.4030   85.0996    8.1492 H       1  UNL1        0.2107
     26 C          63.4073   87.1779   13.5677 C.3     1  UNL1        0.1080
     27 C          63.2623   87.3466   15.0511 C.ar    1  UNL1       -0.0018
     28 C          63.2598   88.7205   15.6531 C.ar    1  UNL1       -0.0025
     29 C          63.1148   88.8891   17.1366 C.ar    1  UNL1       -0.0003
     30 C          62.9722   87.6838   18.0180 C.ar    1  UNL1       -0.0000
     31 C          62.9746   86.3099   17.4160 C.ar    1  UNL1       -0.0003
     32 C          63.1196   86.1413   15.9326 C.ar    1  UNL1       -0.0025
     33 C          63.6298   85.8132   12.9864 C.3     1  UNL1        0.0300
     34 C          62.7993   85.3470   11.8275 C.3     1  UNL1        0.0344
     35 C          63.0219   83.9823   11.2462 C.3     1  UNL1        0.1422
     36 O          64.0749   83.0837   11.8237 O.3     1  UNL1       -0.3538
     37 C          64.9054   83.5498   12.9825 C.3     1  UNL1        0.1422
     38 C          64.6829   84.9145   13.5639 C.3     1  UNL1        0.0344
@<TRIPOS>BOND
     1    14    15    1
     2    15    16   ar
     3    16    17   ar
     4    17    18   ar
     5    18    19    1
     6    18    20   ar
     7    20     1    1
     8     1     2   ar
     9     2     3   ar
    10     3     4   ar
    11     4     5   ar
    12     5     6   ar
    13     6     7   ar
    14     7     8   ar
    15     8    21    1
    16    21    22    1
    17    21    23    1
    18    21    24    1
    19     8     9   ar
    20     9    10   ar
    21    10    11   ar
    22    11    26    1
    23    26    27    1
    24    27    28   ar
    25    28    29   ar
    26    29    30   ar
    27    30    31   ar
    28    31    32   ar
    29    26    33    1
    30    33    34    1
    31    34    35    1
    32    35    36    1
    33    36    37    1
    34    37    38    1
    35    11    12   ar
    36    12    13   ar
    37    20    15   ar
    38    13     1   ar
    39    12     4   ar
    40    10     5   ar
    41    32    27   ar
    42    38    33    1
    43    24    25    1
@<TRIPOS>MOLECULE
*****
 38 43 0 0 0
SMALL
GASTEIGER

@<TRIPOS>ATOM
      1 C          63.2768   82.8399   12.7122 C.ar    1  UNL1        0.0246
      2 C          64.2085   82.9619   13.8814 C.ar    1  UNL1        0.0990
      3 N          64.6214   84.3175   14.3729 N.ar    1  UNL1       -0.2423
      4 C          64.1027   85.5511   13.6953 C.ar    1  UNL1        0.0984
      5 C          64.3325   87.0106   13.9545 C.ar    1  UNL1        0.0348
      6 C          65.1588   87.7301   14.9789 C.ar    1  UNL1        0.0027
      7 C          65.1955   89.2296   14.9944 C.ar    1  UNL1       -0.0019
      8 C          64.4058   90.0095   13.9854 C.ar    1  UNL1        0.0031
      9 C          63.5794   89.2900   12.9609 C.ar    1  UNL1        0.0152
     10 C          63.5428   87.7905   12.9455 C.ar    1  UNL1        0.0613
     11 N          62.8250   86.8131   12.0628 N.ar    1  UNL1       -0.3240
     12 C          63.1710   85.4291   12.5262 C.ar    1  UNL1        0.0780
     13 C          62.7580   84.0734   12.0346 C.ar    1  UNL1        0.0204
     14 C          63.9613   81.5704    9.7848 C.3     1  UNL1        0.0557
     15 C          63.1784   80.9007   10.8750 C.ar    1  UNL1        0.1006
     16 N          62.5728   79.5299   10.8111 N.ar    1  UNL1       -0.0817
     17 O          61.8838   79.2661   12.1172 O.2     1  UNL1       -0.3581
     18 C          62.0637   80.4740   12.9883 C.ar    1  UNL1        0.1544
     19 C          61.5361   80.6420   14.3823 C.3     1  UNL1        0.0754
     20 C          62.8638   81.4842   12.2206 C.ar    1  UNL1        0.0512
     21 C          64.4424   91.5091   14.0007 C.3     1  UNL1        0.1072
     22 C          64.1149   91.5321   12.5371 C.3     1  UNL1        0.0339
     23 C          64.7699   91.4860   15.4644 C.3     1  UNL1        0.0339
     24 O          64.4790   93.0085   14.0162 O.3     1  UNL1       -0.3827
     25 H          64.2873   93.3458   13.1272 H       1  UNL1        0.2107
     26 C          61.9200   87.1589   10.9176 C.3     1  UNL1        0.1080
     27 C          60.9748   88.3180   11.0321 C.ar    1  UNL1       -0.0018
     28 C          59.8601   88.2806   12.0352 C.ar    1  UNL1       -0.0025
     29 C          58.9149   89.4398   12.1496 C.ar    1  UNL1       -0.0003
     30 C          59.0845   90.6364   11.2611 C.ar    1  UNL1       -0.0000
     31 C          60.1992   90.6738   10.2581 C.ar    1  UNL1       -0.0003
     32 C          61.1443   89.5146   10.1436 C.ar    1  UNL1       -0.0025
     33 C          61.9601   86.3457    9.6579 C.3     1  UNL1        0.0300
     34 C          63.2315   85.6656    9.2444 C.3     1  UNL1        0.0344
     35 C          63.2716   84.8523    7.9846 C.3     1  UNL1        0.1422
     36 O          62.0404   84.7191    7.1383 O.3     1  UNL1       -0.3538
     37 C          60.7690   85.3992    7.5518 C.3     1  UNL1        0.1422
     38 C          60.7288   86.2125    8.8116 C.3     1  UNL1        0.0344
@<TRIPOS>BOND
     1    14    15    1
     2    15    16   ar
     3    16    17   ar
     4    17    18   ar
     5    18    19    1
     6    18    20   ar
     7    20     1    1
     8     1     2   ar
     9     2     3   ar
    10     3     4   ar
    11     4     5   ar
    12     5     6   ar
    13     6     7   ar
    14     7     8   ar
    15     8    21    1
    16    21    22    1
    17    21    23    1
    18    21    24    1
    19     8     9   ar
    20     9    10   ar
    21    10    11   ar
    22    11    26    1
    23    26    27    1
    24    27    28   ar
    25    28    29   ar
    26    29    30   ar
    27    30    31   ar
    28    31    32   ar
    29    26    33    1
    30    33    34    1
    31    34    35    1
    32    35    36    1
    33    36    37    1
    34    37    38    1
    35    11    12   ar
    36    12    13   ar
    37    20    15   ar
    38    13     1   ar
    39    12     4   ar
    40    10     5   ar
    41    32    27   ar
    42    38    33    1
    43    24    25    1
@<TRIPOS>MOLECULE
*****
 38 43 0 0 0
SMALL
GASTEIGER

@<TRIPOS>ATOM
      1 C          63.6431   90.3333   13.6815 C.ar    1  UNL1        0.0246
      2 C          63.1657   91.2544   12.5982 C.ar    1  UNL1        0.0990
      3 N          62.5994   90.6897   11.3292 N.ar    1  UNL1       -0.2423
      4 C          62.5105   89.2039   11.1435 C.ar    1  UNL1        0.0984
      5 C          62.0032   88.3627   10.0099 C.ar    1  UNL1        0.0348
      6 C          61.4132   88.7227    8.6786 C.ar    1  UNL1        0.0027
      7 C          60.9871   87.6416    7.7301 C.ar    1  UNL1       -0.0019
      8 C          61.1510   86.2006    8.1129 C.ar    1  UNL1        0.0031
      9 C          61.7410   85.8406    9.4442 C.ar    1  UNL1        0.0152
     10 C          62.1671   86.9216   10.3926 C.ar    1  UNL1        0.0613
     11 N          62.7756   86.8723   11.7627 N.ar    1  UNL1       -0.3240
     12 C          62.9879   88.2828   12.2268 C.ar    1  UNL1        0.0780
     13 C          63.5542   88.8475   13.4958 C.ar    1  UNL1        0.0204
     14 C          66.0210   92.5578   13.8980 C.3     1  UNL1        0.0557
     15 C          65.3024   91.9204   15.0501 C.ar    1  UNL1        0.1006
     16 N          65.5506   92.1936   16.5039 N.ar    1  UNL1       -0.0817
     17 O          64.6110   91.3400   17.3030 O.2     1  UNL1       -0.3581
     18 C          63.7821   90.5392   16.3430 C.ar    1  UNL1        0.1544
     19 C          62.7135   89.5529   16.7108 C.3     1  UNL1        0.0754
     20 C          64.2094   90.8980   14.9506 C.ar    1  UNL1        0.0512
     21 C          60.7249   85.1194    7.1643 C.3     1  UNL1        0.1072
     22 C          59.3077   85.6035    7.2491 C.3     1  UNL1        0.0339
     23 C          62.1421   84.6353    7.0795 C.3     1  UNL1        0.0339
     24 O          60.2988   84.0383    6.2158 O.3     1  UNL1       -0.3827
     25 H          59.3429   84.1004    6.0630 H       1  UNL1        0.2107
     26 C          63.1128   85.6304   12.5335 C.3     1  UNL1        0.1080
     27 C          63.2508   85.6883   14.0260 C.ar    1  UNL1       -0.0018
     28 C          62.1562   85.1547   14.9018 C.ar    1  UNL1       -0.0025
     29 C          62.2943   85.2126   16.3944 C.ar    1  UNL1       -0.0003
     30 C          63.5271   85.8041   17.0111 C.ar    1  UNL1       -0.0000
     31 C          64.6218   86.3377   16.1353 C.ar    1  UNL1       -0.0003
     32 C          64.4836   86.2798   14.6428 C.ar    1  UNL1       -0.0025
     33 C          63.3119   84.3306   11.8118 C.3     1  UNL1        0.0300
     34 C          64.2152   84.2674   10.6160 C.3     1  UNL1        0.0344
     35 C          64.4143   82.9676    9.8943 C.3     1  UNL1        0.1422
     36 O          63.7101   81.7310   10.3684 O.3     1  UNL1       -0.3538
     37 C          62.8067   81.7942   11.5642 C.3     1  UNL1        0.1422
     38 C          62.6076   83.0940   12.2859 C.3     1  UNL1        0.0344
@<TRIPOS>BOND
     1    14    15    1
     2    15    16   ar
     3    16    17   ar
     4    17    18   ar
     5    18    19    1
     6    18    20   ar
     7    20     1    1
     8     1     2   ar
     9     2     3   ar
    10     3     4   ar
    11     4     5   ar
    12     5     6   ar
    13     6     7   ar
    14     7     8   ar
    15     8    21    1
    16    21    22    1
    17    21    23    1
    18    21    24    1
    19     8     9   ar
    20     9    10   ar
    21    10    11   ar
    22    11    26    1
    23    26    27    1
    24    27    28   ar
    25    28    29   ar
    26    29    30   ar
    27    30    31   ar
    28    31    32   ar
    29    26    33    1
    30    33    34    1
    31    34    35    1
    32    35    36    1
    33    36    37    1
    34    37    38    1
    35    11    12   ar
    36    12    13   ar
    37    20    15   ar
    38    13     1   ar
    39    12     4   ar
    40    10     5   ar
    41    32    27   ar
    42    38    33    1
    43    24    25    1
@<TRIPOS>MOLECULE
*****
 38 43 0 0 0
SMALL
GASTEIGER

@<TRIPOS>ATOM
      1 C          65.0310   91.1849   12.9915 C.ar    1  UNL1        0.0246
      2 C          65.6723   90.8102   14.2947 C.ar    1  UNL1        0.0990
      3 N          65.4409   89.4489   14.8804 N.ar    1  UNL1       -0.2423
      4 C          64.5682   88.4621   14.1629 C.ar    1  UNL1        0.0984
      5 C          64.1602   87.0570   14.4933 C.ar    1  UNL1        0.0348
      6 C          64.4868   86.1633   15.6528 C.ar    1  UNL1        0.0027
      7 C          63.9200   84.7759   15.7134 C.ar    1  UNL1       -0.0019
      8 C          63.0264   84.2822   14.6144 C.ar    1  UNL1        0.0031
      9 C          62.6998   85.1759   13.4548 C.ar    1  UNL1        0.0152
     10 C          63.2667   86.5632   13.3943 C.ar    1  UNL1        0.0613
     11 N          63.1225   87.6632   12.3847 N.ar    1  UNL1       -0.3240
     12 C          63.9269   88.8368   12.8597 C.ar    1  UNL1        0.0780
     13 C          64.1583   90.1982   12.2741 C.ar    1  UNL1        0.0204
     14 C          66.6358   93.6408   14.4209 C.3     1  UNL1        0.0557
     15 C          66.0000   93.6751   13.0628 C.ar    1  UNL1        0.1006
     16 N          65.9901   94.8444   12.1232 N.ar    1  UNL1       -0.0817
     17 O          65.2464   94.4382   10.8855 O.2     1  UNL1       -0.3581
     18 C          64.7966   93.0179   11.0601 C.ar    1  UNL1        0.1544
     19 C          64.0178   92.2110   10.0640 C.3     1  UNL1        0.0754
     20 C          65.2623   92.5463   12.4058 C.ar    1  UNL1        0.0512
     21 C          62.4595   82.8947   14.6750 C.3     1  UNL1        0.1072
     22 C          62.1021   83.1035   16.1167 C.3     1  UNL1        0.0339
     23 C          62.8169   82.6858   13.2332 C.3     1  UNL1        0.0339
     24 O          61.8926   81.5073   14.7355 O.3     1  UNL1       -0.3827
     25 H          61.5525   81.3355   15.6275 H       1  UNL1        0.2107
     26 C          62.3156   87.6006   11.1218 C.3     1  UNL1        0.1080
     27 C          62.5234   86.4737   10.1540 C.ar    1  UNL1       -0.0018
     28 C          62.1147   86.6319    8.7195 C.ar    1  UNL1       -0.0025
     29 C          62.3226   85.5048    7.7517 C.ar    1  UNL1       -0.0003
     30 C          62.9391   84.2195    8.2185 C.ar    1  UNL1       -0.0000
     31 C          63.3478   84.0613    9.6530 C.ar    1  UNL1       -0.0003
     32 C          63.1399   85.1883   10.6207 C.ar    1  UNL1       -0.0025
     33 C          61.3008   88.6651   10.8267 C.3     1  UNL1        0.0300
     34 C          61.0583   89.0983    9.4112 C.3     1  UNL1        0.0344
     35 C          60.0435   90.1628    9.1161 C.3     1  UNL1        0.1422
     36 O          59.2711   90.7940   10.2363 O.3     1  UNL1       -0.3538
     37 C          59.5136   90.3608   11.6518 C.3     1  UNL1        0.1422
     38 C          60.5284   89.2963   11.9469 C.3     1  UNL1        0.0344
@<TRIPOS>BOND
     1    14    15    1
     2    15    16   ar
     3    16    17   ar
     4    17    18   ar
     5    18    19    1
     6    18    20   ar
     7    20     1    1
     8     1     2   ar
     9     2     3   ar
    10     3     4   ar
    11     4     5   ar
    12     5     6   ar
    13     6     7   ar
    14     7     8   ar
    15     8    21    1
    16    21    22    1
    17    21    23    1
    18    21    24    1
    19     8     9   ar
    20     9    10   ar
    21    10    11   ar
    22    11    26    1
    23    26    27    1
    24    27    28   ar
    25    28    29   ar
    26    29    30   ar
    27    30    31   ar
    28    31    32   ar
    29    26    33    1
    30    33    34    1
    31    34    35    1
    32    35    36    1
    33    36    37    1
    34    37    38    1
    35    11    12   ar
    36    12    13   ar
    37    20    15   ar
    38    13     1   ar
    39    12     4   ar
    40    10     5   ar
    41    32    27   ar
    42    38    33    1
    43    24    25    1
