@<TRIPOS>MOLECULE
*****
 28 30 0 0 0
SMALL
GASTEIGER

@<TRIPOS>ATOM
      1 C          62.9709   89.2906   12.1127 C.2     1  UNL1        0.0731
      2 C          63.7557   89.7407   13.3091 C.2     1  UNL1        0.0529
      3 N          64.2938   88.7290   14.2771 N.pl3   1  UNL1       -0.3173
      4 C          64.0470   87.2672   14.0486 C.2     1  UNL1        0.0317
      5 C          64.5851   86.2555   15.0166 C.3     1  UNL1        0.0475
      6 C          63.2621   86.8171   12.8523 C.2     1  UNL1        0.0635
      7 C          62.7241   87.8288   11.8843 C.3     1  UNL1        0.0855
      8 H          64.8089   89.0244   15.0623 H       1  UNL1        0.1517
      9 C          61.9392   87.3786   10.6879 C.ar    1  UNL1       -0.0026
     10 C          62.6436   86.7516    9.5214 C.ar    1  UNL1       -0.0005
     11 C          61.8588   86.3014    8.3250 C.ar    1  UNL1        0.0294
     12 C          60.3695   86.4783    8.2951 C.ar    1  UNL1        0.1410
     13 F          59.5847   86.0281    7.0987 F       1  UNL1       -0.2041
     14 C          59.6651   87.1053    9.4615 C.ar    1  UNL1        0.0407
     15 C          60.4500   87.5555   10.6580 C.ar    1  UNL1        0.0566
     16 CL         59.7456   88.1825   11.8244 Cl      1  UNL1       -0.0825
     17 C          62.4328   90.3023   11.1447 C.2     1  UNL1        0.3389
     18 O          61.0234   90.7968   11.2828 O.2     1  UNL1       -0.2452
     19 C          64.2470   91.9572   10.2963 C.3     1  UNL1        0.2559
     20 O          63.3041   90.8194   10.0387 O.3     1  UNL1       -0.4415
     21 C          63.0153   85.3552   12.6238 C.1     1  UNL1        0.0976
     22 N          62.7684   83.8934   12.3954 N.1     1  UNL1       -0.1911
     23 C          64.0025   91.2025   13.5375 C.3     1  UNL1        0.1681
     24 N          65.2165   91.6484   14.2973 N.ar    1  UNL1       -0.2436
     25 C          66.6363   91.5597   13.8215 C.ar    1  UNL1        0.0971
     26 C          67.5212   92.1177   14.8965 C.ar    1  UNL1        0.0427
     27 C          66.6483   92.5513   16.0367 C.ar    1  UNL1        0.1217
     28 N          65.2240   92.2613   15.6664 N.ar    1  UNL1       -0.1673
@<TRIPOS>BOND
     1    19    20    1
     2    20    17    1
     3    17    18    2
     4    17     1    1
     5     1     2    2
     6     2    23    1
     7    23    24    1
     8    24    25   ar
     9    25    26   ar
    10    26    27   ar
    11    27    28   ar
    12     2     3    1
    13     3     4    1
    14     4     5    1
    15     4     6    2
    16     6    21    1
    17    21    22    3
    18     6     7    1
    19     7     9    1
    20     9    10   ar
    21    10    11   ar
    22    11    12   ar
    23    12    13    1
    24    12    14   ar
    25    14    15   ar
    26    15    16    1
    27     7     1    1
    28    15     9   ar
    29    28    24   ar
    30     3     8    1
@<TRIPOS>MOLECULE
*****
 28 30 0 0 0
SMALL
GASTEIGER

@<TRIPOS>ATOM
      1 C          63.9694   87.0220   13.9275 C.2     1  UNL1        0.0731
      2 C          63.9522   88.5106   13.7436 C.2     1  UNL1        0.0529
      3 N          63.2866   89.1100   12.5405 N.pl3   1  UNL1       -0.3173
      4 C          62.6381   88.2209   11.5212 C.2     1  UNL1        0.0317
      5 C          61.9725   88.8204   10.3180 C.3     1  UNL1        0.0475
      6 C          62.6553   86.7324   11.7051 C.2     1  UNL1        0.0635
      7 C          63.3209   86.1329   12.9082 C.3     1  UNL1        0.0855
      8 H          63.2753   90.0870   12.4198 H       1  UNL1        0.1517
      9 C          63.3381   84.6443   13.0921 C.ar    1  UNL1       -0.0026
     10 C          64.2723   83.7988   12.2781 C.ar    1  UNL1       -0.0005
     11 C          64.2895   82.3102   12.4619 C.ar    1  UNL1        0.0294
     12 C          63.3725   81.6670   13.4597 C.ar    1  UNL1        0.1410
     13 F          63.3897   80.1785   13.6435 F       1  UNL1       -0.2041
     14 C          62.4384   82.5125   14.2737 C.ar    1  UNL1        0.0407
     15 C          62.4212   84.0012   14.0898 C.ar    1  UNL1        0.0566
     16 CL         61.4870   84.8466   14.9038 Cl      1  UNL1       -0.0825
     17 C          64.6350   86.4225   15.1306 C.2     1  UNL1        0.3389
     18 O          66.0926   86.0716   15.0844 O.2     1  UNL1       -0.2452
     19 C          63.0694   87.2927   17.0125 C.3     1  UNL1        0.2559
     20 O          63.8431   86.1740   16.3800 O.3     1  UNL1       -0.4415
     21 C          62.0068   85.8432   10.6858 C.1     1  UNL1        0.0976
     22 N          61.3584   84.9541    9.6665 N.1     1  UNL1       -0.1911
     23 C          64.6007   89.3997   14.7629 C.3     1  UNL1        0.1681
     24 N          65.2627   90.6752   14.3329 N.ar    1  UNL1       -0.2436
     25 C          66.5582   91.2173   14.8599 C.ar    1  UNL1        0.0971
     26 C          66.8416   92.5096   14.1531 C.ar    1  UNL1        0.0427
     27 C          65.7213   92.7661   13.1891 C.ar    1  UNL1        0.1217
     28 N          64.7455   91.6324   13.3003 N.ar    1  UNL1       -0.1673
@<TRIPOS>BOND
     1    19    20    1
     2    20    17    1
     3    17    18    2
     4    17     1    1
     5     1     2    2
     6     2    23    1
     7    23    24    1
     8    24    25   ar
     9    25    26   ar
    10    26    27   ar
    11    27    28   ar
    12     2     3    1
    13     3     4    1
    14     4     5    1
    15     4     6    2
    16     6    21    1
    17    21    22    3
    18     6     7    1
    19     7     9    1
    20     9    10   ar
    21    10    11   ar
    22    11    12   ar
    23    12    13    1
    24    12    14   ar
    25    14    15   ar
    26    15    16    1
    27     7     1    1
    28    15     9   ar
    29    28    24   ar
    30     3     8    1
@<TRIPOS>MOLECULE
*****
 28 30 0 0 0
SMALL
GASTEIGER

@<TRIPOS>ATOM
      1 C          63.7333   87.0540   13.7964 C.2     1  UNL1        0.0731
      2 C          63.1706   85.9354   12.9706 C.2     1  UNL1        0.0529
      3 N          62.5235   86.2302   11.6499 N.pl3   1  UNL1       -0.3173
      4 C          62.4391   87.6437   11.1549 C.2     1  UNL1        0.0317
      5 C          61.7920   87.9385    9.8342 C.3     1  UNL1        0.0475
      6 C          63.0019   88.7623   11.9807 C.2     1  UNL1        0.0635
      7 C          63.6490   88.4674   13.3014 C.3     1  UNL1        0.0855
      8 H          62.1541   85.4960   11.1079 H       1  UNL1        0.1517
      9 C          64.2117   89.5861   14.1272 C.ar    1  UNL1       -0.0026
     10 C          65.5370   90.1900   13.7683 C.ar    1  UNL1       -0.0005
     11 C          66.0998   91.3087   14.5940 C.ar    1  UNL1        0.0294
     12 C          65.3373   91.8235   15.7788 C.ar    1  UNL1        0.1410
     13 F          65.9000   92.9421   16.6045 F       1  UNL1       -0.2041
     14 C          64.0120   91.2196   16.1377 C.ar    1  UNL1        0.0407
     15 C          63.4492   90.1009   15.3119 C.ar    1  UNL1        0.0566
     16 CL         62.1239   89.4970   15.6709 Cl      1  UNL1       -0.0825
     17 C          64.3804   86.7592   15.1171 C.2     1  UNL1        0.3389
     18 O          65.8052   86.2929   15.1667 O.2     1  UNL1       -0.2452
     19 C          62.7377   85.8146   16.8945 C.3     1  UNL1        0.2559
     20 O          63.6028   86.9306   16.3882 O.3     1  UNL1       -0.4415
     21 C          62.9175   90.1758   11.4858 C.1     1  UNL1        0.0976
     22 N          62.8332   91.5893   10.9909 N.1     1  UNL1       -0.1911
     23 C          63.2549   84.5218   13.4655 C.3     1  UNL1        0.1681
     24 N          63.3074   83.3864   12.4868 N.ar    1  UNL1       -0.2436
     25 C          62.6675   82.0411   12.6620 C.ar    1  UNL1        0.0971
     26 C          62.9735   81.2201   11.4445 C.ar    1  UNL1        0.0427
     27 C          63.8026   82.0580   10.5168 C.ar    1  UNL1        0.1217
     28 N          64.0089   83.3968   11.1610 N.ar    1  UNL1       -0.1673
@<TRIPOS>BOND
     1    19    20    1
     2    20    17    1
     3    17    18    2
     4    17     1    1
     5     1     2    2
     6     2    23    1
     7    23    24    1
     8    24    25   ar
     9    25    26   ar
    10    26    27   ar
    11    27    28   ar
    12     2     3    1
    13     3     4    1
    14     4     5    1
    15     4     6    2
    16     6    21    1
    17    21    22    3
    18     6     7    1
    19     7     9    1
    20     9    10   ar
    21    10    11   ar
    22    11    12   ar
    23    12    13    1
    24    12    14   ar
    25    14    15   ar
    26    15    16    1
    27     7     1    1
    28    15     9   ar
    29    28    24   ar
    30     3     8    1
@<TRIPOS>MOLECULE
*****
 28 30 0 0 0
SMALL
GASTEIGER

@<TRIPOS>ATOM
      1 C          62.7838   85.5827   11.5509 C.2     1  UNL1        0.0731
      2 C          62.8770   85.2054   10.1021 C.2     1  UNL1        0.0529
      3 N          63.1610   83.7846    9.7139 N.pl3   1  UNL1       -0.3173
      4 C          63.3518   82.7412   10.7744 C.2     1  UNL1        0.0317
      5 C          63.6358   81.3204   10.3862 C.3     1  UNL1        0.0475
      6 C          63.2586   83.1185   12.2232 C.2     1  UNL1        0.0635
      7 C          62.9746   84.5393   12.6114 C.3     1  UNL1        0.0855
      8 H          63.2222   83.5370    8.7630 H       1  UNL1        0.1517
      9 C          62.8814   84.9166   14.0602 C.ar    1  UNL1       -0.0026
     10 C          61.5511   84.9083   14.7533 C.ar    1  UNL1       -0.0005
     11 C          61.4579   85.2856   16.2020 C.ar    1  UNL1        0.0294
     12 C          62.6949   85.6711   16.9578 C.ar    1  UNL1        0.1410
     13 F          62.6017   86.0484   18.4066 F       1  UNL1       -0.2041
     14 C          64.0252   85.6794   16.2648 C.ar    1  UNL1        0.0407
     15 C          64.1184   85.3021   14.8159 C.ar    1  UNL1        0.0566
     16 CL         65.4487   85.3103   14.1229 Cl      1  UNL1       -0.0825
     17 C          62.4998   87.0035   11.9391 C.2     1  UNL1        0.3389
     18 O          61.1294   87.5776   11.7333 O.2     1  UNL1       -0.2452
     19 C          63.3766   89.3251   12.7083 C.3     1  UNL1        0.2559
     20 O          63.5862   87.8502   12.5331 O.3     1  UNL1       -0.4415
     21 C          63.4493   82.0750   13.2838 C.1     1  UNL1        0.0976
     22 N          63.6401   81.0316   14.3443 N.1     1  UNL1       -0.1911
     23 C          62.6862   86.2489    9.0415 C.3     1  UNL1        0.1681
     24 N          61.3028   86.6327    8.6073 N.ar    1  UNL1       -0.2436
     25 C          60.3393   85.7595    7.8595 C.ar    1  UNL1        0.0971
     26 C          59.0809   86.5443    7.6346 C.ar    1  UNL1        0.0427
     27 C          59.2666   87.9026    8.2435 C.ar    1  UNL1        0.1217
     28 N          60.6398   87.9572    8.8447 N.ar    1  UNL1       -0.1673
@<TRIPOS>BOND
     1    19    20    1
     2    20    17    1
     3    17    18    2
     4    17     1    1
     5     1     2    2
     6     2    23    1
     7    23    24    1
     8    24    25   ar
     9    25    26   ar
    10    26    27   ar
    11    27    28   ar
    12     2     3    1
    13     3     4    1
    14     4     5    1
    15     4     6    2
    16     6    21    1
    17    21    22    3
    18     6     7    1
    19     7     9    1
    20     9    10   ar
    21    10    11   ar
    22    11    12   ar
    23    12    13    1
    24    12    14   ar
    25    14    15   ar
    26    15    16    1
    27     7     1    1
    28    15     9   ar
    29    28    24   ar
    30     3     8    1
@<TRIPOS>MOLECULE
*****
 28 30 0 0 0
SMALL
GASTEIGER

@<TRIPOS>ATOM
      1 C          62.8226   85.9857   11.5192 C.2     1  UNL1        0.0731
      2 C          62.9454   87.4134   11.9626 C.2     1  UNL1        0.0529
      3 N          63.5608   87.7355   13.2921 N.pl3   1  UNL1       -0.3173
      4 C          64.0535   86.6301   14.1781 C.2     1  UNL1        0.0317
      5 C          64.6689   86.9522   15.5076 C.3     1  UNL1        0.0475
      6 C          63.9307   85.2024   13.7347 C.2     1  UNL1        0.0635
      7 C          63.3153   84.8802   12.4053 C.3     1  UNL1        0.0855
      8 H          63.6414   88.6726   13.5831 H       1  UNL1        0.1517
      9 C          63.1925   83.4525   11.9619 C.ar    1  UNL1       -0.0026
     10 C          63.8793   82.9944   10.7095 C.ar    1  UNL1       -0.0005
     11 C          63.7566   81.5667   10.2661 C.ar    1  UNL1        0.0294
     12 C          62.9470   80.5970   11.0751 C.ar    1  UNL1        0.1410
     13 F          62.8243   79.1694   10.6317 F       1  UNL1       -0.2041
     14 C          62.2602   81.0551   12.3275 C.ar    1  UNL1        0.0407
     15 C          62.3830   82.4829   12.7709 C.ar    1  UNL1        0.0566
     16 CL         61.6961   82.9410   14.0232 Cl      1  UNL1       -0.0825
     17 C          62.2072   85.6635   10.1897 C.2     1  UNL1        0.3389
     18 O          63.0743   85.2151    9.0509 O.2     1  UNL1       -0.2452
     19 C          60.1814   86.5258    8.8104 C.3     1  UNL1        0.2559
     20 O          60.7248   85.7898    9.9992 O.3     1  UNL1       -0.4415
     21 C          64.4233   84.0968   14.6208 C.1     1  UNL1        0.0976
     22 N          64.9160   82.9913   15.5069 N.1     1  UNL1       -0.1911
     23 C          62.4528   88.5190   11.0765 C.3     1  UNL1        0.1681
     24 N          61.1265   89.1642   11.3494 N.ar    1  UNL1       -0.2436
     25 C          60.7155   90.5453   10.9326 C.ar    1  UNL1        0.0971
     26 C          59.3133   90.7763   11.4125 C.ar    1  UNL1        0.0427
     27 C          58.8575   89.5380   12.1259 C.ar    1  UNL1        0.1217
     28 N          59.9782   88.5417   12.0869 N.ar    1  UNL1       -0.1673
@<TRIPOS>BOND
     1    19    20    1
     2    20    17    1
     3    17    18    2
     4    17     1    1
     5     1     2    2
     6     2    23    1
     7    23    24    1
     8    24    25   ar
     9    25    26   ar
    10    26    27   ar
    11    27    28   ar
    12     2     3    1
    13     3     4    1
    14     4     5    1
    15     4     6    2
    16     6    21    1
    17    21    22    3
    18     6     7    1
    19     7     9    1
    20     9    10   ar
    21    10    11   ar
    22    11    12   ar
    23    12    13    1
    24    12    14   ar
    25    14    15   ar
    26    15    16    1
    27     7     1    1
    28    15     9   ar
    29    28    24   ar
    30     3     8    1
@<TRIPOS>MOLECULE
*****
 28 30 0 0 0
SMALL
GASTEIGER

@<TRIPOS>ATOM
      1 C          63.7148   86.9133   13.5549 C.2     1  UNL1        0.0731
      2 C          63.8184   88.4056   13.4450 C.2     1  UNL1        0.0529
      3 N          63.1916   89.1174   12.2829 N.pl3   1  UNL1       -0.3173
      4 C          62.4613   88.3369   11.2306 C.2     1  UNL1        0.0317
      5 C          61.8346   89.0487   10.0685 C.3     1  UNL1        0.0475
      6 C          62.3577   86.8445   11.3405 C.2     1  UNL1        0.0635
      7 C          62.9845   86.1327   12.5026 C.3     1  UNL1        0.0855
      8 H          63.2596   90.0969   12.2108 H       1  UNL1        0.1517
      9 C          62.8809   84.6403   12.6124 C.ar    1  UNL1       -0.0026
     10 C          62.1807   84.0214   13.7858 C.ar    1  UNL1       -0.0005
     11 C          62.0771   82.5291   13.8956 C.ar    1  UNL1        0.0294
     12 C          62.6737   81.6555   12.8321 C.ar    1  UNL1        0.1410
     13 F          62.5700   80.1632   12.9419 F       1  UNL1       -0.2041
     14 C          63.3738   82.2744   11.6587 C.ar    1  UNL1        0.0407
     15 C          63.4774   83.7668   11.5489 C.ar    1  UNL1        0.0566
     16 CL         64.1776   84.3857   10.3755 Cl      1  UNL1       -0.0825
     17 C          64.3415   86.2015   14.7170 C.2     1  UNL1        0.3389
     18 O          65.4481   85.2159   14.4846 O.2     1  UNL1       -0.2452
     19 C          62.7965   85.6129   16.7211 C.3     1  UNL1        0.2559
     20 O          63.8617   86.4753   16.1115 O.3     1  UNL1       -0.4415
     21 C          61.6274   86.0639   10.2882 C.1     1  UNL1        0.0976
     22 N          60.8971   85.2832    9.2359 N.1     1  UNL1       -0.1911
     23 C          64.5487   89.1863   14.4973 C.3     1  UNL1        0.1681
     24 N          65.1005   90.5437   14.1765 N.ar    1  UNL1       -0.2436
     25 C          65.9321   91.3955   15.0890 C.ar    1  UNL1        0.0971
     26 C          66.2631   92.6659   14.3634 C.ar    1  UNL1        0.0427
     27 C          65.6360   92.5992   13.0023 C.ar    1  UNL1        0.1217
     28 N          64.9175   91.2876   12.8869 N.ar    1  UNL1       -0.1673
@<TRIPOS>BOND
     1    19    20    1
     2    20    17    1
     3    17    18    2
     4    17     1    1
     5     1     2    2
     6     2    23    1
     7    23    24    1
     8    24    25   ar
     9    25    26   ar
    10    26    27   ar
    11    27    28   ar
    12     2     3    1
    13     3     4    1
    14     4     5    1
    15     4     6    2
    16     6    21    1
    17    21    22    3
    18     6     7    1
    19     7     9    1
    20     9    10   ar
    21    10    11   ar
    22    11    12   ar
    23    12    13    1
    24    12    14   ar
    25    14    15   ar
    26    15    16    1
    27     7     1    1
    28    15     9   ar
    29    28    24   ar
    30     3     8    1
@<TRIPOS>MOLECULE
*****
 28 30 0 0 0
SMALL
GASTEIGER

@<TRIPOS>ATOM
      1 C          62.5979   85.8767   10.8384 C.2     1  UNL1        0.0731
      2 C          63.3100   84.6842   10.2722 C.2     1  UNL1        0.0529
      3 N          63.0713   84.2739    8.8493 N.pl3   1  UNL1       -0.3173
      4 C          62.1205   85.0561    7.9926 C.2     1  UNL1        0.0317
      5 C          61.8817   84.6458    6.5697 C.3     1  UNL1        0.0475
      6 C          61.4083   86.2486    8.5588 C.2     1  UNL1        0.0635
      7 C          61.6470   86.6590    9.9817 C.3     1  UNL1        0.0855
      8 H          63.5387   83.4911    8.4776 H       1  UNL1        0.1517
      9 C          60.9348   87.8516   10.5479 C.ar    1  UNL1       -0.0026
     10 C          59.6358   87.6733   11.2763 C.ar    1  UNL1       -0.0005
     11 C          58.9236   88.8658   11.8425 C.ar    1  UNL1        0.0294
     12 C          59.5105   90.2367   11.6803 C.ar    1  UNL1        0.1410
     13 F          58.7983   91.4293   12.2465 F       1  UNL1       -0.2041
     14 C          60.8095   90.4150   10.9518 C.ar    1  UNL1        0.0407
     15 C          61.5217   89.2224   10.3856 C.ar    1  UNL1        0.0566
     16 CL         62.8208   89.4007    9.6572 Cl      1  UNL1       -0.0825
     17 C          62.8366   86.2871   12.2613 C.2     1  UNL1        0.3389
     18 O          63.4413   87.6259   12.5644 O.2     1  UNL1       -0.2452
     19 C          63.4179   85.1545   14.5261 C.3     1  UNL1        0.2559
     20 O          62.4707   85.3586   13.3810 O.3     1  UNL1       -0.4415
     21 C          60.4574   87.0309    7.7021 C.1     1  UNL1        0.0976
     22 N          59.5065   87.8132    6.8455 N.1     1  UNL1       -0.1911
     23 C          64.2609   83.9019   11.1288 C.3     1  UNL1        0.1681
     24 N          63.7550   82.7630   11.9637 N.ar    1  UNL1       -0.2436
     25 C          62.4010   82.1263   11.8585 C.ar    1  UNL1        0.0971
     26 C          62.3234   81.0307   12.8801 C.ar    1  UNL1        0.0427
     27 C          63.6296   80.9902   13.6166 C.ar    1  UNL1        0.1217
     28 N          64.5143   82.0609   13.0502 N.ar    1  UNL1       -0.1673
@<TRIPOS>BOND
     1    19    20    1
     2    20    17    1
     3    17    18    2
     4    17     1    1
     5     1     2    2
     6     2    23    1
     7    23    24    1
     8    24    25   ar
     9    25    26   ar
    10    26    27   ar
    11    27    28   ar
    12     2     3    1
    13     3     4    1
    14     4     5    1
    15     4     6    2
    16     6    21    1
    17    21    22    3
    18     6     7    1
    19     7     9    1
    20     9    10   ar
    21    10    11   ar
    22    11    12   ar
    23    12    13    1
    24    12    14   ar
    25    14    15   ar
    26    15    16    1
    27     7     1    1
    28    15     9   ar
    29    28    24   ar
    30     3     8    1
@<TRIPOS>MOLECULE
*****
 28 30 0 0 0
SMALL
GASTEIGER

@<TRIPOS>ATOM
      1 C          62.8150   86.0573   11.5780 C.2     1  UNL1        0.0731
      2 C          62.9178   87.4624   12.0927 C.2     1  UNL1        0.0529
      3 N          63.5163   87.7247   13.4429 N.pl3   1  UNL1       -0.3173
      4 C          64.0120   86.5818   14.2784 C.2     1  UNL1        0.0317
      5 C          64.6105   86.8441   15.6286 C.3     1  UNL1        0.0475
      6 C          63.9092   85.1767   13.7637 C.2     1  UNL1        0.0635
      7 C          63.3107   84.9144   12.4135 C.3     1  UNL1        0.0855
      8 H          63.5838   88.6469   13.7807 H       1  UNL1        0.1517
      9 C          63.2079   83.5092   11.8988 C.ar    1  UNL1       -0.0026
     10 C          63.9228   83.1175   10.6397 C.ar    1  UNL1       -0.0005
     11 C          63.8201   81.7123   10.1250 C.ar    1  UNL1        0.0294
     12 C          63.0023   80.6988   10.8694 C.ar    1  UNL1        0.1410
     13 F          62.8996   79.2936   10.3547 F       1  UNL1       -0.2041
     14 C          62.2874   81.0905   12.1285 C.ar    1  UNL1        0.0407
     15 C          62.3902   82.4957   12.6432 C.ar    1  UNL1        0.0566
     16 CL         61.6752   82.8874   13.9024 Cl      1  UNL1       -0.0825
     17 C          62.2164   85.7950   10.2278 C.2     1  UNL1        0.3389
     18 O          63.1050   85.4707    9.0637 O.2     1  UNL1       -0.2452
     19 C          60.1517   86.5499    8.8434 C.3     1  UNL1        0.2559
     20 O          60.7293   85.8570   10.0418 O.3     1  UNL1       -0.4415
     21 C          64.4049   84.0337   14.5992 C.1     1  UNL1        0.0976
     22 N          64.9006   82.8908   15.4346 N.1     1  UNL1       -0.1911
     23 C          62.4220   88.6054   11.2572 C.3     1  UNL1        0.1681
     24 N          63.1340   89.9251   11.2936 N.ar    1  UNL1       -0.2436
     25 C          63.2396   90.9015   10.1598 C.ar    1  UNL1        0.0971
     26 C          64.0363   92.0800   10.6357 C.ar    1  UNL1        0.0427
     27 C          64.4231   91.8320   12.0636 C.ar    1  UNL1        0.1217
     28 N          63.8654   90.5002   12.4702 N.ar    1  UNL1       -0.1673
@<TRIPOS>BOND
     1    19    20    1
     2    20    17    1
     3    17    18    2
     4    17     1    1
     5     1     2    2
     6     2    23    1
     7    23    24    1
     8    24    25   ar
     9    25    26   ar
    10    26    27   ar
    11    27    28   ar
    12     2     3    1
    13     3     4    1
    14     4     5    1
    15     4     6    2
    16     6    21    1
    17    21    22    3
    18     6     7    1
    19     7     9    1
    20     9    10   ar
    21    10    11   ar
    22    11    12   ar
    23    12    13    1
    24    12    14   ar
    25    14    15   ar
    26    15    16    1
    27     7     1    1
    28    15     9   ar
    29    28    24   ar
    30     3     8    1
@<TRIPOS>MOLECULE
*****
 28 30 0 0 0
SMALL
GASTEIGER

@<TRIPOS>ATOM
      1 C          61.6561   94.5879   -1.8046 C.2     1  UNL1        0.0731
      2 C          63.1343   94.6314   -1.5535 C.2     1  UNL1        0.0529
      3 N          63.6833   94.1897   -0.2293 N.pl3   1  UNL1       -0.3173
      4 C          62.7542   93.7046    0.8437 C.2     1  UNL1        0.0317
      5 C          63.3033   93.2630    2.1679 C.3     1  UNL1        0.0475
      6 C          61.2761   93.6611    0.5925 C.2     1  UNL1        0.0635
      7 C          60.7270   94.1028   -0.7317 C.3     1  UNL1        0.0855
      8 H          64.6535   94.2183   -0.0644 H       1  UNL1        0.1517
      9 C          59.2488   94.0593   -0.9828 C.ar    1  UNL1       -0.0026
     10 C          58.6121   92.8023   -1.4972 C.ar    1  UNL1       -0.0005
     11 C          57.1340   92.7587   -1.7484 C.ar    1  UNL1        0.0294
     12 C          56.2924   93.9722   -1.4852 C.ar    1  UNL1        0.1410
     13 F          54.8142   93.9287   -1.7363 F       1  UNL1       -0.2041
     14 C          56.9291   95.2293   -0.9708 C.ar    1  UNL1        0.0407
     15 C          58.4073   95.2728   -0.7196 C.ar    1  UNL1        0.0566
     16 CL         59.0439   96.5298   -0.2052 Cl      1  UNL1       -0.0825
     17 C          61.1071   95.0296   -3.1288 C.2     1  UNL1        0.3389
     18 O          60.6171   96.4361   -3.3061 O.2     1  UNL1       -0.2452
     19 C          61.3490   94.5351   -5.6679 C.3     1  UNL1        0.2559
     20 O          61.0480   94.0647   -4.2757 O.3     1  UNL1       -0.4415
     21 C          60.3469   93.1760    1.6656 C.1     1  UNL1        0.0976
     22 N          59.4177   92.6909    2.7386 N.1     1  UNL1       -0.1911
     23 C          64.0635   95.1165   -2.6265 C.3     1  UNL1        0.1681
     24 N          64.4156   94.2192   -3.7757 N.ar    1  UNL1       -0.2436
     25 C          64.2361   92.7307   -3.8192 C.ar    1  UNL1        0.0971
     26 C          64.7186   92.2444   -5.1536 C.ar    1  UNL1        0.0427
     27 C          65.1963   93.4324   -5.9349 C.ar    1  UNL1        0.1217
     28 N          65.0090   94.6530   -5.0833 N.ar    1  UNL1       -0.1673
@<TRIPOS>BOND
     1    19    20    1
     2    20    17    1
     3    17    18    2
     4    17     1    1
     5     1     2    2
     6     2    23    1
     7    23    24    1
     8    24    25   ar
     9    25    26   ar
    10    26    27   ar
    11    27    28   ar
    12     2     3    1
    13     3     4    1
    14     4     5    1
    15     4     6    2
    16     6    21    1
    17    21    22    3
    18     6     7    1
    19     7     9    1
    20     9    10   ar
    21    10    11   ar
    22    11    12   ar
    23    12    13    1
    24    12    14   ar
    25    14    15   ar
    26    15    16    1
    27     7     1    1
    28    15     9   ar
    29    28    24   ar
    30     3     8    1
