@<TRIPOS>MOLECULE
*****
 27 29 0 0 0
SMALL
GASTEIGER

@<TRIPOS>ATOM
      1 C          63.5522   88.0990   12.9899 C.3     1  UNL1        0.0518
      2 C          62.9185   89.0128   11.9832 C.ar    1  UNL1        0.0612
      3 C          63.2632   90.4558   11.7624 C.ar    1  UNL1        0.1481
      4 N          62.3865   90.9789   10.6633 N.ar    1  UNL1       -0.2196
      5 C          61.5000   89.8590   10.2049 C.ar    1  UNL1        0.1787
      6 N          61.8288   88.6439   11.0206 N.ar    1  UNL1       -0.3082
      7 C          64.3021   91.2385   12.5095 C.2     1  UNL1        0.2695
      8 O          64.8210   92.5271   11.9438 O.2     1  UNL1       -0.2681
      9 N          64.8221   90.7325   13.8224 N.am    1  UNL1       -0.2631
     10 H          64.4815   89.8867   14.1937 H       1  UNL1        0.1567
     11 C          65.8609   91.5151   14.5695 C.ar    1  UNL1        0.1557
     12 C          65.6337   92.3143   15.8183 C.ar    1  UNL1        0.0564
     13 C          66.9418   92.9290   16.2195 C.ar    1  UNL1        0.0981
     14 N          67.9774   92.5098   15.2187 N.ar    1  UNL1       -0.2462
     15 C          69.4267   92.8965   15.2348 C.3     1  UNL1        0.1538
     16 N          67.3094   91.6359   14.1989 N.ar    1  UNL1       -0.1539
     17 C          61.1816   87.2966   10.8956 C.3     1  UNL1        0.1340
     18 C          61.9983   86.1074   10.4846 C.ar    1  UNL1        0.0004
     19 C          62.4547   85.9663    9.0627 C.ar    1  UNL1       -0.0024
     20 C          63.2713   84.7771    8.6517 C.ar    1  UNL1       -0.0003
     21 C          63.6316   83.7291    9.6626 C.ar    1  UNL1        0.0038
     22 C          63.1752   83.8702   11.0845 C.ar    1  UNL1        0.0712
     23 C          62.3585   85.0594   11.4955 C.ar    1  UNL1        0.0015
     24 C          63.5354   82.8222   12.0954 C.3     1  UNL1        0.4186
     25 F          63.8957   81.7742   13.1062 F       1  UNL1       -0.1659
     26 F          62.4048   81.9647   11.6093 F       1  UNL1       -0.1659
     27 F          64.6661   83.6797   12.5814 F       1  UNL1       -0.1659
@<TRIPOS>BOND
     1     1     2    1
     2     2     3   ar
     3     3     7    1
     4     7     8    2
     5     7     9   am
     6     9    11    1
     7    11    12   ar
     8    12    13   ar
     9    13    14   ar
    10    14    15    1
    11    14    16   ar
    12     3     4   ar
    13     4     5   ar
    14     5     6   ar
    15     6    17    1
    16    17    18    1
    17    18    19   ar
    18    19    20   ar
    19    20    21   ar
    20    21    22   ar
    21    22    24    1
    22    24    25    1
    23    24    26    1
    24    24    27    1
    25    22    23   ar
    26     6     2   ar
    27    23    18   ar
    28    16    11   ar
    29     9    10    1
@<TRIPOS>MOLECULE
*****
 27 29 0 0 0
SMALL
GASTEIGER

@<TRIPOS>ATOM
      1 C          63.5994   90.8388   10.2970 C.3     1  UNL1        0.0518
      2 C          62.6765   90.4126   11.4000 C.ar    1  UNL1        0.0612
      3 C          63.0151   90.3555   12.8601 C.ar    1  UNL1        0.1481
      4 N          61.8008   89.8762   13.5991 N.ar    1  UNL1       -0.2196
      5 C          60.7119   89.6371   12.5955 C.ar    1  UNL1        0.1787
      6 N          61.2531   89.9686   11.2364 N.ar    1  UNL1       -0.3082
      7 C          64.3359   90.7146   13.4737 C.2     1  UNL1        0.2695
      8 O          64.9580   89.8113   14.4968 O.2     1  UNL1       -0.2681
      9 N          65.0346   91.9772   13.0641 N.am    1  UNL1       -0.2631
     10 H          64.6263   92.5701   12.3925 H       1  UNL1        0.1567
     11 C          66.3554   92.3363   13.6776 C.ar    1  UNL1        0.1557
     12 C          67.6908   91.7769   13.2857 C.ar    1  UNL1        0.0564
     13 C          68.7335   92.4128   14.1567 C.ar    1  UNL1        0.0981
     14 N          68.0424   93.3652   15.0869 N.ar    1  UNL1       -0.2462
     15 C          68.7048   94.2156   16.1301 C.3     1  UNL1        0.1538
     16 N          66.5727   93.3179   14.7908 N.ar    1  UNL1       -0.1539
     17 C          60.5027   89.8729    9.9412 C.3     1  UNL1        0.1340
     18 C          60.4768   88.5787    9.1832 C.ar    1  UNL1        0.0004
     19 C          59.3655   88.2983    8.2156 C.ar    1  UNL1       -0.0024
     20 C          59.3397   87.0042    7.4577 C.ar    1  UNL1       -0.0003
     21 C          60.4252   85.9904    7.6673 C.ar    1  UNL1        0.0038
     22 C          61.5366   86.2708    8.6349 C.ar    1  UNL1        0.0712
     23 C          61.5623   87.5649    9.3929 C.ar    1  UNL1        0.0015
     24 C          62.6221   85.2571    8.8446 C.3     1  UNL1        0.4186
     25 F          63.7076   84.2433    9.0543 F       1  UNL1       -0.1659
     26 F          62.6652   85.6049   10.3031 F       1  UNL1       -0.1659
     27 F          62.5790   84.9093    7.3861 F       1  UNL1       -0.1659
@<TRIPOS>BOND
     1     1     2    1
     2     2     3   ar
     3     3     7    1
     4     7     8    2
     5     7     9   am
     6     9    11    1
     7    11    12   ar
     8    12    13   ar
     9    13    14   ar
    10    14    15    1
    11    14    16   ar
    12     3     4   ar
    13     4     5   ar
    14     5     6   ar
    15     6    17    1
    16    17    18    1
    17    18    19   ar
    18    19    20   ar
    19    20    21   ar
    20    21    22   ar
    21    22    24    1
    22    24    25    1
    23    24    26    1
    24    24    27    1
    25    22    23   ar
    26     6     2   ar
    27    23    18   ar
    28    16    11   ar
    29     9    10    1
@<TRIPOS>MOLECULE
*****
 27 29 0 0 0
SMALL
GASTEIGER

@<TRIPOS>ATOM
      1 C          63.8306   88.5302   13.4467 C.3     1  UNL1        0.0518
      2 C          63.0678   89.0069   12.2464 C.ar    1  UNL1        0.0612
      3 C          62.2987   88.1439   11.2906 C.ar    1  UNL1        0.1481
      4 N          61.6957   89.0340   10.2446 N.ar    1  UNL1       -0.2196
      5 C          62.0922   90.4472   10.5539 C.ar    1  UNL1        0.1787
      6 N          62.9402   90.4305   11.7911 N.ar    1  UNL1       -0.3082
      7 C          62.1574   86.6525   11.3673 C.2     1  UNL1        0.2695
      8 O          61.1393   85.9510   10.5181 O.2     1  UNL1       -0.2681
      9 N          63.0342   85.8627   12.2933 N.am    1  UNL1       -0.2631
     10 H          63.7024   86.3231   12.8507 H       1  UNL1        0.1567
     11 C          62.8928   84.3714   12.3700 C.ar    1  UNL1        0.1557
     12 C          63.3262   83.3897   11.3220 C.ar    1  UNL1        0.0564
     13 C          62.9945   82.0115   11.8125 C.ar    1  UNL1        0.0981
     14 N          62.3562   82.1414   13.1636 N.ar    1  UNL1       -0.2462
     15 C          61.8667   81.0113   14.0200 C.3     1  UNL1        0.1538
     16 N          62.2934   83.6000   13.5082 N.ar    1  UNL1       -0.1539
     17 C          63.5529   91.6272   12.4562 C.3     1  UNL1        0.1340
     18 C          65.0328   91.8572   12.3706 C.ar    1  UNL1        0.0004
     19 C          65.8886   91.6967   13.5919 C.ar    1  UNL1       -0.0024
     20 C          67.3684   91.9267   13.5062 C.ar    1  UNL1       -0.0003
     21 C          67.9923   92.3171   12.1992 C.ar    1  UNL1        0.0038
     22 C          67.1364   92.4775   10.9778 C.ar    1  UNL1        0.0712
     23 C          65.6567   92.2476   11.0635 C.ar    1  UNL1        0.0015
     24 C          67.7603   92.8679    9.6708 C.3     1  UNL1        0.4186
     25 F          68.3842   93.2583    8.3638 F       1  UNL1       -0.1659
     26 F          67.4605   94.3093    9.9582 F       1  UNL1       -0.1659
     27 F          68.0602   91.4266    9.3834 F       1  UNL1       -0.1659
@<TRIPOS>BOND
     1     1     2    1
     2     2     3   ar
     3     3     7    1
     4     7     8    2
     5     7     9   am
     6     9    11    1
     7    11    12   ar
     8    12    13   ar
     9    13    14   ar
    10    14    15    1
    11    14    16   ar
    12     3     4   ar
    13     4     5   ar
    14     5     6   ar
    15     6    17    1
    16    17    18    1
    17    18    19   ar
    18    19    20   ar
    19    20    21   ar
    20    21    22   ar
    21    22    24    1
    22    24    25    1
    23    24    26    1
    24    24    27    1
    25    22    23   ar
    26     6     2   ar
    27    23    18   ar
    28    16    11   ar
    29     9    10    1
@<TRIPOS>MOLECULE
*****
 27 29 0 0 0
SMALL
GASTEIGER

@<TRIPOS>ATOM
      1 C          62.7656   90.9665   10.1095 C.3     1  UNL1        0.0518
      2 C          63.2420   90.4157   11.4209 C.ar    1  UNL1        0.0612
      3 C          64.2549   91.0497   12.3276 C.ar    1  UNL1        0.1481
      4 N          64.4281   90.1600   13.5229 N.ar    1  UNL1       -0.2196
      5 C          63.5222   88.9763   13.3548 C.ar    1  UNL1        0.1787
      6 N          62.7892   89.1343   12.0557 N.ar    1  UNL1       -0.3082
      7 C          64.9692   92.3456   12.0822 C.2     1  UNL1        0.2695
      8 O          65.5504   93.1114   13.2335 O.2     1  UNL1       -0.2681
      9 N          65.1023   92.8758   10.6853 N.am    1  UNL1       -0.2631
     10 H          64.7208   92.3732    9.9296 H       1  UNL1        0.1567
     11 C          65.8166   94.1718   10.4399 C.ar    1  UNL1        0.1557
     12 C          66.1329   95.2132   11.4719 C.ar    1  UNL1        0.0564
     13 C          66.8518   96.3389   10.7892 C.ar    1  UNL1        0.0981
     14 N          66.9797   95.9931    9.3352 N.ar    1  UNL1       -0.2462
     15 C          67.6328   96.8383    8.2820 C.3     1  UNL1        0.1538
     16 N          66.3399   94.6537    9.1193 N.ar    1  UNL1       -0.1539
     17 C          61.7804   88.1788   11.4907 C.3     1  UNL1        0.1340
     18 C          62.2374   86.9411   10.7769 C.ar    1  UNL1        0.0004
     19 C          62.2895   86.9159    9.2780 C.ar    1  UNL1       -0.0024
     20 C          62.7464   85.6783    8.5643 C.ar    1  UNL1       -0.0003
     21 C          63.1513   84.4659    9.3493 C.ar    1  UNL1        0.0038
     22 C          63.0992   84.4912   10.8482 C.ar    1  UNL1        0.0712
     23 C          62.6422   85.7288   11.5620 C.ar    1  UNL1        0.0015
     24 C          63.5041   83.2789   11.6333 C.3     1  UNL1        0.4186
     25 F          63.9089   82.0665   12.4183 F       1  UNL1       -0.1659
     26 F          62.3830   83.5292   12.5979 F       1  UNL1       -0.1659
     27 F          64.6251   83.0286   10.6686 F       1  UNL1       -0.1659
@<TRIPOS>BOND
     1     1     2    1
     2     2     3   ar
     3     3     7    1
     4     7     8    2
     5     7     9   am
     6     9    11    1
     7    11    12   ar
     8    12    13   ar
     9    13    14   ar
    10    14    15    1
    11    14    16   ar
    12     3     4   ar
    13     4     5   ar
    14     5     6   ar
    15     6    17    1
    16    17    18    1
    17    18    19   ar
    18    19    20   ar
    19    20    21   ar
    20    21    22   ar
    21    22    24    1
    22    24    25    1
    23    24    26    1
    24    24    27    1
    25    22    23   ar
    26     6     2   ar
    27    23    18   ar
    28    16    11   ar
    29     9    10    1
@<TRIPOS>MOLECULE
*****
 27 29 0 0 0
SMALL
GASTEIGER

@<TRIPOS>ATOM
      1 C          63.6074   88.6840   13.3113 C.3     1  UNL1        0.0518
      2 C          62.9570   89.0680   12.0153 C.ar    1  UNL1        0.0612
      3 C          62.2914   88.1312   11.0514 C.ar    1  UNL1        0.1481
      4 N          61.7811   88.9405    9.8960 N.ar    1  UNL1       -0.2196
      5 C          62.1313   90.3774   10.1460 C.ar    1  UNL1        0.1787
      6 N          62.8581   90.4563   11.4558 N.ar    1  UNL1       -0.3082
      7 C          62.1593   86.6459   11.2141 C.2     1  UNL1        0.2695
      8 O          61.1577   85.8878   10.3945 O.2     1  UNL1       -0.2681
      9 N          63.0289   85.9188   12.1965 N.am    1  UNL1       -0.2631
     10 H          63.6864   86.4163   12.7345 H       1  UNL1        0.1567
     11 C          62.8968   84.4335   12.3592 C.ar    1  UNL1        0.1557
     12 C          63.3275   83.3959   11.3653 C.ar    1  UNL1        0.0564
     13 C          63.0077   82.0462   11.9362 C.ar    1  UNL1        0.0981
     14 N          62.3794   82.2496   13.2830 N.ar    1  UNL1       -0.2462
     15 C          61.9032   81.1676   14.2064 C.3     1  UNL1        0.1538
     16 N          62.3109   83.7251   13.5444 N.ar    1  UNL1       -0.1539
     17 C          63.3921   91.7042   12.0940 C.3     1  UNL1        0.1340
     18 C          64.8730   91.9248   12.1862 C.ar    1  UNL1        0.0004
     19 C          65.6635   92.2353   10.9498 C.ar    1  UNL1       -0.0024
     20 C          67.1443   92.4559   11.0421 C.ar    1  UNL1       -0.0003
     21 C          67.8346   92.3660   12.3707 C.ar    1  UNL1        0.0038
     22 C          67.0441   92.0556   13.6071 C.ar    1  UNL1        0.0712
     23 C          65.5634   91.8350   13.5149 C.ar    1  UNL1        0.0015
     24 C          67.7345   91.9657   14.9358 C.3     1  UNL1        0.4186
     25 F          68.4248   91.8759   16.2645 F       1  UNL1       -0.1659
     26 F          66.4168   91.7031   15.6027 F       1  UNL1       -0.1659
     27 F          69.0522   92.2283   14.2689 F       1  UNL1       -0.1659
@<TRIPOS>BOND
     1     1     2    1
     2     2     3   ar
     3     3     7    1
     4     7     8    2
     5     7     9   am
     6     9    11    1
     7    11    12   ar
     8    12    13   ar
     9    13    14   ar
    10    14    15    1
    11    14    16   ar
    12     3     4   ar
    13     4     5   ar
    14     5     6   ar
    15     6    17    1
    16    17    18    1
    17    18    19   ar
    18    19    20   ar
    19    20    21   ar
    20    21    22   ar
    21    22    24    1
    22    24    25    1
    23    24    26    1
    24    24    27    1
    25    22    23   ar
    26     6     2   ar
    27    23    18   ar
    28    16    11   ar
    29     9    10    1
@<TRIPOS>MOLECULE
*****
 27 29 0 0 0
SMALL
GASTEIGER

@<TRIPOS>ATOM
      1 C          64.1368   88.4723   13.3089 C.3     1  UNL1        0.0518
      2 C          63.7765   88.3144   14.7563 C.ar    1  UNL1        0.0612
      3 C          63.5645   87.0152   15.4754 C.ar    1  UNL1        0.1481
      4 N          63.2219   87.3258   16.9024 N.ar    1  UNL1       -0.2196
      5 C          63.2222   88.8169   17.0652 C.ar    1  UNL1        0.1787
      6 N          63.5649   89.4279   15.7389 N.ar    1  UNL1       -0.3082
      7 C          63.6756   85.6458   14.8733 C.2     1  UNL1        0.2695
      8 O          64.7936   84.7343   15.2843 O.2     1  UNL1       -0.2681
      9 N          62.6685   85.1881   13.8602 N.am    1  UNL1       -0.2631
     10 H          61.9347   85.7864   13.5905 H       1  UNL1        0.1567
     11 C          62.7796   83.8187   13.2581 C.ar    1  UNL1        0.1557
     12 C          63.3357   83.4937   11.9035 C.ar    1  UNL1        0.0564
     13 C          63.2538   82.0081   11.7131 C.ar    1  UNL1        0.0981
     14 N          62.6472   81.4150   12.9501 N.ar    1  UNL1       -0.2462
     15 C          62.3804   79.9585   13.1901 C.3     1  UNL1        0.1538
     16 N          62.3541   82.5340   13.9050 N.ar    1  UNL1       -0.1539
     17 C          63.6765   90.8949   15.4464 C.3     1  UNL1        0.1340
     18 C          65.0237   91.5136   15.2174 C.ar    1  UNL1        0.0004
     19 C          65.7158   92.2382   16.3336 C.ar    1  UNL1       -0.0024
     20 C          67.0628   92.8569   16.1045 C.ar    1  UNL1       -0.0003
     21 C          67.7178   92.7511   14.7593 C.ar    1  UNL1        0.0038
     22 C          67.0258   92.0265   13.6431 C.ar    1  UNL1        0.0712
     23 C          65.6787   91.4078   13.8721 C.ar    1  UNL1        0.0015
     24 C          67.6808   91.9207   12.2978 C.3     1  UNL1        0.4186
     25 F          68.3358   91.8148   10.9525 F       1  UNL1       -0.1659
     26 F          66.3874   92.2980   11.6384 F       1  UNL1       -0.1659
     27 F          68.9742   91.5434   12.9572 F       1  UNL1       -0.1659
@<TRIPOS>BOND
     1     1     2    1
     2     2     3   ar
     3     3     7    1
     4     7     8    2
     5     7     9   am
     6     9    11    1
     7    11    12   ar
     8    12    13   ar
     9    13    14   ar
    10    14    15    1
    11    14    16   ar
    12     3     4   ar
    13     4     5   ar
    14     5     6   ar
    15     6    17    1
    16    17    18    1
    17    18    19   ar
    18    19    20   ar
    19    20    21   ar
    20    21    22   ar
    21    22    24    1
    22    24    25    1
    23    24    26    1
    24    24    27    1
    25    22    23   ar
    26     6     2   ar
    27    23    18   ar
    28    16    11   ar
    29     9    10    1
@<TRIPOS>MOLECULE
*****
 27 29 0 0 0
SMALL
GASTEIGER

@<TRIPOS>ATOM
      1 C          62.4589   89.1538   10.9465 C.3     1  UNL1        0.0518
      2 C          63.0145   88.4021   12.1197 C.ar    1  UNL1        0.0612
      3 C          63.8302   88.9861   13.2348 C.ar    1  UNL1        0.1481
      4 N          64.1718   87.8793   14.1880 N.ar    1  UNL1       -0.2196
      5 C          63.5673   86.6114   13.6618 C.ar    1  UNL1        0.1787
      6 N          62.8520   86.9344   12.3836 N.ar    1  UNL1       -0.3082
      7 C          64.2334   90.4243   13.3727 C.2     1  UNL1        0.2695
      8 O          63.5786   91.2909   14.4071 O.2     1  UNL1       -0.2681
      9 N          65.2914   90.9958   12.4761 N.am    1  UNL1       -0.2631
     10 H          65.7212   90.4270   11.7972 H       1  UNL1        0.1567
     11 C          65.6946   92.4340   12.6140 C.ar    1  UNL1        0.1557
     12 C          66.2934   93.0687   13.8340 C.ar    1  UNL1        0.0564
     13 C          66.5387   94.5169   13.5301 C.ar    1  UNL1        0.0981
     14 N          66.0915   94.7773   12.1222 N.ar    1  UNL1       -0.2462
     15 C          66.1549   96.0939   11.4061 C.3     1  UNL1        0.1538
     16 N          65.5698   93.4900   11.5560 N.ar    1  UNL1       -0.1539
     17 C          62.1055   85.9608   11.5207 C.3     1  UNL1        0.1340
     18 C          62.6781   84.5996   11.2574 C.ar    1  UNL1        0.0004
     19 C          63.5576   84.3740   10.0634 C.ar    1  UNL1       -0.0024
     20 C          64.1301   83.0128    9.8002 C.ar    1  UNL1       -0.0003
     21 C          63.8231   81.8772   10.7308 C.ar    1  UNL1        0.0038
     22 C          62.9436   82.1028   11.9248 C.ar    1  UNL1        0.0712
     23 C          62.3711   83.4640   12.1880 C.ar    1  UNL1        0.0015
     24 C          62.6367   80.9672   12.8555 C.3     1  UNL1        0.4186
     25 F          62.3297   79.8316   13.7861 F       1  UNL1       -0.1659
     26 F          62.5358   81.9321   13.9995 F       1  UNL1       -0.1659
     27 F          62.7375   80.0023   11.7114 F       1  UNL1       -0.1659
@<TRIPOS>BOND
     1     1     2    1
     2     2     3   ar
     3     3     7    1
     4     7     8    2
     5     7     9   am
     6     9    11    1
     7    11    12   ar
     8    12    13   ar
     9    13    14   ar
    10    14    15    1
    11    14    16   ar
    12     3     4   ar
    13     4     5   ar
    14     5     6   ar
    15     6    17    1
    16    17    18    1
    17    18    19   ar
    18    19    20   ar
    19    20    21   ar
    20    21    22   ar
    21    22    24    1
    22    24    25    1
    23    24    26    1
    24    24    27    1
    25    22    23   ar
    26     6     2   ar
    27    23    18   ar
    28    16    11   ar
    29     9    10    1
@<TRIPOS>MOLECULE
*****
 27 29 0 0 0
SMALL
GASTEIGER

@<TRIPOS>ATOM
      1 C          62.7192   87.2557   11.4445 C.3     1  UNL1        0.0518
      2 C          63.3448   87.6148   12.7597 C.ar    1  UNL1        0.0612
      3 C          63.8519   86.6478   13.7881 C.ar    1  UNL1        0.1481
      4 N          64.3936   87.4394   14.9413 N.ar    1  UNL1       -0.2196
      5 C          64.2213   88.8956   14.6257 C.ar    1  UNL1        0.1787
      6 N          63.5731   89.0041   13.2773 N.ar    1  UNL1       -0.3082
      7 C          63.8224   85.1518   13.6819 C.2     1  UNL1        0.2695
      8 O          65.0054   84.3448   14.1280 O.2     1  UNL1       -0.2681
      9 N          62.6099   84.4629   13.1295 N.am    1  UNL1       -0.2631
     10 H          61.8334   84.9925   12.8367 H       1  UNL1        0.1567
     11 C          62.5804   82.9669   13.0233 C.ar    1  UNL1        0.1557
     12 C          62.3277   82.0080   14.1487 C.ar    1  UNL1        0.0564
     13 C          62.3896   80.6157   13.5940 C.ar    1  UNL1        0.0981
     14 N          62.6806   80.7142   12.1258 N.ar    1  UNL1       -0.2462
     15 C          62.8279   79.5618   11.1769 C.3     1  UNL1        0.1538
     16 N          62.7986   82.1673   11.7731 N.ar    1  UNL1       -0.1539
     17 C          63.2159   90.2780   12.5707 C.3     1  UNL1        0.1340
     18 C          64.2780   91.2955   12.2761 C.ar    1  UNL1        0.0004
     19 C          64.3937   91.8821   10.9005 C.ar    1  UNL1       -0.0024
     20 C          65.4558   92.8995   10.6059 C.ar    1  UNL1       -0.0003
     21 C          66.4022   93.3303   11.6870 C.ar    1  UNL1        0.0038
     22 C          66.2865   92.7437   13.0627 C.ar    1  UNL1        0.0712
     23 C          65.2244   91.7263   13.3572 C.ar    1  UNL1        0.0015
     24 C          67.2329   93.1745   14.1438 C.3     1  UNL1        0.4186
     25 F          68.1793   93.6052   15.2249 F       1  UNL1       -0.1659
     26 F          66.4929   94.4726   14.2743 F       1  UNL1       -0.1659
     27 F          67.9729   91.8763   14.0132 F       1  UNL1       -0.1659
@<TRIPOS>BOND
     1     1     2    1
     2     2     3   ar
     3     3     7    1
     4     7     8    2
     5     7     9   am
     6     9    11    1
     7    11    12   ar
     8    12    13   ar
     9    13    14   ar
    10    14    15    1
    11    14    16   ar
    12     3     4   ar
    13     4     5   ar
    14     5     6   ar
    15     6    17    1
    16    17    18    1
    17    18    19   ar
    18    19    20   ar
    19    20    21   ar
    20    21    22   ar
    21    22    24    1
    22    24    25    1
    23    24    26    1
    24    24    27    1
    25    22    23   ar
    26     6     2   ar
    27    23    18   ar
    28    16    11   ar
    29     9    10    1
@<TRIPOS>MOLECULE
*****
 27 29 0 0 0
SMALL
GASTEIGER

@<TRIPOS>ATOM
      1 C          62.8382   91.2430   10.1923 C.3     1  UNL1        0.0518
      2 C          63.3334   90.7263   11.5105 C.ar    1  UNL1        0.0612
      3 C          64.3937   91.3580   12.3629 C.ar    1  UNL1        0.1481
      4 N          64.5709   90.5093   13.5870 N.ar    1  UNL1       -0.2196
      5 C          63.6201   89.3532   13.4911 C.ar    1  UNL1        0.1787
      6 N          62.8552   89.4873   12.2077 N.ar    1  UNL1       -0.3082
      7 C          65.1450   92.6172   12.0468 C.2     1  UNL1        0.2695
      8 O          65.9859   93.2736   13.1012 O.2     1  UNL1       -0.2681
      9 N          65.0553   93.2201   10.6762 N.am    1  UNL1       -0.2631
     10 H          64.5033   92.7893    9.9841 H       1  UNL1        0.1567
     11 C          65.8065   94.4793   10.3601 C.ar    1  UNL1        0.1557
     12 C          65.9900   95.6506   11.2789 C.ar    1  UNL1        0.0564
     13 C          66.8031   96.6836   10.5563 C.ar    1  UNL1        0.0981
     14 N          67.1220   96.1505    9.1910 N.ar    1  UNL1       -0.2462
     15 C          67.9173   96.8560    8.1326 C.3     1  UNL1        0.1538
     16 N          66.5061   94.7882    9.0697 N.ar    1  UNL1       -0.1539
     17 C          61.7979   88.5474   11.7092 C.3     1  UNL1        0.1340
     18 C          62.1842   87.2019   11.1701 C.ar    1  UNL1        0.0004
     19 C          62.7523   86.1609   12.0885 C.ar    1  UNL1       -0.0024
     20 C          63.1385   84.8155   11.5495 C.ar    1  UNL1       -0.0003
     21 C          62.9566   84.5110   10.0920 C.ar    1  UNL1        0.0038
     22 C          62.3884   85.5520    9.1736 C.ar    1  UNL1        0.0712
     23 C          62.0022   86.8974    9.7127 C.ar    1  UNL1        0.0015
     24 C          62.2065   85.2475    7.7161 C.3     1  UNL1        0.4186
     25 F          62.0245   84.9431    6.2587 F       1  UNL1       -0.1659
     26 F          63.3142   84.2387    7.7886 F       1  UNL1       -0.1659
     27 F          61.0987   86.2563    7.6437 F       1  UNL1       -0.1659
@<TRIPOS>BOND
     1     1     2    1
     2     2     3   ar
     3     3     7    1
     4     7     8    2
     5     7     9   am
     6     9    11    1
     7    11    12   ar
     8    12    13   ar
     9    13    14   ar
    10    14    15    1
    11    14    16   ar
    12     3     4   ar
    13     4     5   ar
    14     5     6   ar
    15     6    17    1
    16    17    18    1
    17    18    19   ar
    18    19    20   ar
    19    20    21   ar
    20    21    22   ar
    21    22    24    1
    22    24    25    1
    23    24    26    1
    24    24    27    1
    25    22    23   ar
    26     6     2   ar
    27    23    18   ar
    28    16    11   ar
    29     9    10    1
