@<TRIPOS>MOLECULE
*****
 35 38 0 0 0
SMALL
GASTEIGER

@<TRIPOS>ATOM
      1 C          62.3182   87.0297   10.5363 C.2     1  UNL1        0.2320
      2 O          61.9870   88.2065    9.6672 O.2     1  UNL1       -0.2744
      3 N          62.8932   87.2461   11.9046 N.am    1  UNL1       -0.2639
      4 H          63.1106   86.4736   12.4750 H       1  UNL1        0.1567
      5 C          63.1371   88.6392   12.4040 C.ar    1  UNL1        0.1655
      6 N          63.8598   89.0101   13.6650 N.ar    1  UNL1       -0.2239
      7 C          63.8705   90.5063   13.7704 C.ar    1  UNL1        0.0913
      8 C          63.1543   91.0603   12.5745 C.ar    1  UNL1        0.0573
      9 S          62.7010   89.9064   11.7300 S.2     1  UNL1       -0.0508
     10 C          64.4887   91.3079   14.8773 C.ar    1  UNL1        0.0403
     11 C          63.8209   91.6981   16.1625 C.ar    1  UNL1        0.1021
     12 N          64.8029   92.4913   16.9728 N.ar    1  UNL1       -0.2269
     13 C          66.0775   92.5914   16.1883 C.ar    1  UNL1        0.1406
     14 N          67.3898   93.2540   16.4860 N.ar    1  UNL1       -0.3374
     15 C          68.5080   93.1853   15.4886 C.ar    1  UNL1        0.0735
     16 C          68.3138   92.4538   14.1935 C.ar    1  UNL1        0.0186
     17 C          67.0015   91.7912   13.8958 C.ar    1  UNL1        0.0046
     18 C          65.8833   91.8600   14.8932 C.ar    1  UNL1        0.0370
     19 H          67.5172   93.7341   17.3361 H       1  UNL1        0.1674
     20 C          62.0743   85.6364   10.0369 C.3     1  UNL1        0.1117
     21 C          63.6221   83.1635   12.7275 C.ar    1  UNL1        0.0641
     22 C          64.3174   82.1759   11.8380 C.ar    1  UNL1        0.0158
     23 C          64.2650   82.3417   10.3481 C.ar    1  UNL1        0.0010
     24 C          63.5172   83.4953    9.7477 C.ar    1  UNL1       -0.0037
     25 C          62.8220   84.4829   10.6373 C.ar    1  UNL1       -0.0118
     26 C          62.8744   84.3170   12.1272 C.ar    1  UNL1        0.0121
     27 N          63.6745   82.9976   14.2174 N.pl3   1  UNL1       -0.2188
     28 H          63.6580   82.0963   14.6132 H       1  UNL1        0.1734
     29 S          63.7521   84.2049   15.1041 S.O2    1  UNL1        0.0539
     30 O          62.3467   83.9561   15.5658 O.2     1  UNL1       -0.1545
     31 O          65.1574   84.4537   14.6426 O.2     1  UNL1       -0.1545
     32 C          63.8296   85.4122   15.9910 C.3     1  UNL1        0.1724
     33 C          62.7491   85.6737   16.9981 C.3     1  UNL1        0.0273
     34 C          63.0527   88.2531   17.0650 C.3     1  UNL1        0.0001
     35 C          62.7328   86.9642   17.7625 C.3     1  UNL1        0.0019
@<TRIPOS>BOND
     1    34    35    1
     2    35    33    1
     3    33    32    1
     4    32    29    1
     5    29    30    2
     6    29    31    2
     7    29    27    1
     8    27    21    1
     9    21    22   ar
    10    22    23   ar
    11    23    24   ar
    12    24    25   ar
    13    25    20    1
    14    20     1    1
    15     1     2    2
    16     1     3   am
    17     3     5    1
    18     5     6   ar
    19     6     7   ar
    20     7    10    1
    21    10    11   ar
    22    11    12   ar
    23    12    13   ar
    24    13    14   ar
    25    14    15   ar
    26    15    16   ar
    27    16    17   ar
    28    17    18   ar
    29     7     8   ar
    30     8     9   ar
    31    25    26   ar
    32    26    21   ar
    33     9     5   ar
    34    18    10   ar
    35    18    13    1
    36    27    28    1
    37     3     4    1
    38    14    19    1
@<TRIPOS>MOLECULE
*****
 35 38 0 0 0
SMALL
GASTEIGER

@<TRIPOS>ATOM
      1 C          63.8019   89.4849   15.0806 C.2     1  UNL1        0.2320
      2 O          62.4652   89.3575   15.7491 O.2     1  UNL1       -0.2744
      3 N          64.5730   88.2543   14.7051 N.am    1  UNL1       -0.2639
      4 H          65.4503   88.3379   14.2663 H       1  UNL1        0.1567
      5 C          64.0075   86.8963   14.9983 C.ar    1  UNL1        0.1655
      6 N          63.7529   85.8116   13.9940 N.ar    1  UNL1       -0.2239
      7 C          63.1853   84.6295   14.7222 C.ar    1  UNL1        0.0913
      8 C          63.0889   84.9835   16.1766 C.ar    1  UNL1        0.0573
      9 S          63.5970   86.3845   16.3472 S.2     1  UNL1       -0.0508
     10 C          62.7844   83.3227   14.1045 C.ar    1  UNL1        0.0403
     11 C          61.9284   82.2705   14.7450 C.ar    1  UNL1        0.1021
     12 N          61.7841   81.1362   13.7741 N.ar    1  UNL1       -0.2269
     13 C          62.5508   81.4873   12.5336 C.ar    1  UNL1        0.1406
     14 N          62.7660   80.7512   11.2446 N.ar    1  UNL1       -0.3374
     15 C          63.5993   81.3664   10.1597 C.ar    1  UNL1        0.0735
     16 C          64.2175   82.7177   10.3638 C.ar    1  UNL1        0.0186
     17 C          64.0024   83.4539   11.6529 C.ar    1  UNL1        0.0046
     18 C          63.1691   82.8387   12.7378 C.ar    1  UNL1        0.0370
     19 H          62.3602   79.8642   11.1106 H       1  UNL1        0.1674
     20 C          64.3675   90.8429   14.7874 C.3     1  UNL1        0.1117
     21 C          63.4699   91.3994   10.9618 C.ar    1  UNL1        0.0641
     22 C          64.5723   92.3270   10.5441 C.ar    1  UNL1        0.0158
     23 C          65.6063   92.7599   11.5407 C.ar    1  UNL1        0.0010
     24 C          65.5381   92.2652   12.9552 C.ar    1  UNL1       -0.0037
     25 C          64.4357   91.3376   13.3730 C.ar    1  UNL1       -0.0118
     26 C          63.4016   90.9047   12.3762 C.ar    1  UNL1        0.0121
     27 N          62.4359   90.9665    9.9652 N.pl3   1  UNL1       -0.2188
     28 H          62.2676   91.5110    9.1624 H       1  UNL1        0.1734
     29 S          61.6582   89.7040   10.1916 S.O2    1  UNL1        0.0539
     30 O          60.4357   90.5138   10.5079 O.2     1  UNL1       -0.1545
     31 O          62.8806   88.8943    9.8755 O.2     1  UNL1       -0.1545
     32 C          60.8804   88.4415   10.4181 C.3     1  UNL1        0.1724
     33 C          61.5970   87.1724   10.7727 C.3     1  UNL1        0.0273
     34 C          62.4584   85.6823    8.8265 C.3     1  UNL1        0.0001
     35 C          61.4502   85.9599    9.9019 C.3     1  UNL1        0.0019
@<TRIPOS>BOND
     1    34    35    1
     2    35    33    1
     3    33    32    1
     4    32    29    1
     5    29    30    2
     6    29    31    2
     7    29    27    1
     8    27    21    1
     9    21    22   ar
    10    22    23   ar
    11    23    24   ar
    12    24    25   ar
    13    25    20    1
    14    20     1    1
    15     1     2    2
    16     1     3   am
    17     3     5    1
    18     5     6   ar
    19     6     7   ar
    20     7    10    1
    21    10    11   ar
    22    11    12   ar
    23    12    13   ar
    24    13    14   ar
    25    14    15   ar
    26    15    16   ar
    27    16    17   ar
    28    17    18   ar
    29     7     8   ar
    30     8     9   ar
    31    25    26   ar
    32    26    21   ar
    33     9     5   ar
    34    18    10   ar
    35    18    13    1
    36    27    28    1
    37     3     4    1
    38    14    19    1
@<TRIPOS>MOLECULE
*****
 35 38 0 0 0
SMALL
GASTEIGER

@<TRIPOS>ATOM
      1 C          62.1156   86.8182   10.2355 C.2     1  UNL1        0.2320
      2 O          62.6407   87.2173    8.8883 O.2     1  UNL1       -0.2744
      3 N          62.0887   87.8156   11.3556 N.am    1  UNL1       -0.2639
      4 H          61.7440   87.5537   12.2398 H       1  UNL1        0.1567
      5 C          62.5870   89.2120   11.1284 C.ar    1  UNL1        0.1655
      6 N          63.7320   89.8667   11.8428 N.ar    1  UNL1       -0.2239
      7 C          63.8805   91.2583   11.3030 C.ar    1  UNL1        0.0913
      8 C          62.8273   91.4636   10.2548 C.ar    1  UNL1        0.0573
      9 S          62.0279   90.1990   10.1470 S.2     1  UNL1       -0.0508
     10 C          64.9027   92.2673   11.7352 C.ar    1  UNL1        0.0403
     11 C          65.4897   93.3501   10.8791 C.ar    1  UNL1        0.1021
     12 N          66.4671   94.1227   11.7143 N.ar    1  UNL1       -0.2269
     13 C          66.4842   93.5175   13.0867 C.ar    1  UNL1        0.1406
     14 N          67.2552   93.8624   14.3262 N.ar    1  UNL1       -0.3374
     15 C          67.0594   93.0606   15.5787 C.ar    1  UNL1        0.0735
     16 C          66.0925   91.9139   15.5916 C.ar    1  UNL1        0.0186
     17 C          65.3214   91.5690   14.3521 C.ar    1  UNL1        0.0046
     18 C          65.5173   92.3708   13.0996 C.ar    1  UNL1        0.0370
     19 H          67.8899   94.6150   14.3178 H       1  UNL1        0.1674
     20 C          61.6172   85.4217   10.4627 C.3     1  UNL1        0.1117
     21 C          63.5897   83.2962   13.1723 C.ar    1  UNL1        0.0641
     22 C          64.3315   82.3339   12.2926 C.ar    1  UNL1        0.0158
     23 C          64.1685   82.4009   10.8030 C.ar    1  UNL1        0.0010
     24 C          63.2637   83.4302   10.1930 C.ar    1  UNL1       -0.0037
     25 C          62.5220   84.3925   11.0727 C.ar    1  UNL1       -0.0118
     26 C          62.6850   84.3255   12.5624 C.ar    1  UNL1        0.0121
     27 N          63.7527   83.2293   14.6619 N.pl3   1  UNL1       -0.2188
     28 H          63.7899   82.3557   15.1142 H       1  UNL1        0.1734
     29 S          63.8591   84.4934   15.4623 S.O2    1  UNL1        0.0539
     30 O          62.5296   84.2051   16.0944 O.2     1  UNL1       -0.1545
     31 O          65.1885   84.7819   14.8303 O.2     1  UNL1       -0.1545
     32 C          63.9654   85.7576   16.2627 C.3     1  UNL1        0.1724
     33 C          62.8533   86.1556   17.1874 C.3     1  UNL1        0.0273
     34 C          63.1712   88.6935   16.7315 C.3     1  UNL1        0.0001
     35 C          62.7230   87.5819   17.6333 C.3     1  UNL1        0.0019
@<TRIPOS>BOND
     1    34    35    1
     2    35    33    1
     3    33    32    1
     4    32    29    1
     5    29    30    2
     6    29    31    2
     7    29    27    1
     8    27    21    1
     9    21    22   ar
    10    22    23   ar
    11    23    24   ar
    12    24    25   ar
    13    25    20    1
    14    20     1    1
    15     1     2    2
    16     1     3   am
    17     3     5    1
    18     5     6   ar
    19     6     7   ar
    20     7    10    1
    21    10    11   ar
    22    11    12   ar
    23    12    13   ar
    24    13    14   ar
    25    14    15   ar
    26    15    16   ar
    27    16    17   ar
    28    17    18   ar
    29     7     8   ar
    30     8     9   ar
    31    25    26   ar
    32    26    21   ar
    33     9     5   ar
    34    18    10   ar
    35    18    13    1
    36    27    28    1
    37     3     4    1
    38    14    19    1
@<TRIPOS>MOLECULE
*****
 35 38 0 0 0
SMALL
GASTEIGER

@<TRIPOS>ATOM
      1 C          64.6272   85.9512   14.9358 C.2     1  UNL1        0.2320
      2 O          66.0345   86.3842   15.2220 O.2     1  UNL1       -0.2744
      3 N          63.5168   86.9596   14.9393 N.am    1  UNL1       -0.2639
      4 H          62.5931   86.6753   14.7514 H       1  UNL1        0.1567
      5 C          63.8136   88.4010   15.2291 C.ar    1  UNL1        0.1655
      6 N          64.7033   89.2979   14.4205 N.ar    1  UNL1       -0.2239
      7 C          64.7125   90.6499   15.0700 C.ar    1  UNL1        0.0913
      8 C          63.8283   90.5886   16.2802 C.ar    1  UNL1        0.0573
      9 S          63.2728   89.1988   16.3786 S.2     1  UNL1       -0.0508
     10 C          65.4723   91.8521   14.5932 C.ar    1  UNL1        0.0403
     11 C          66.3347   92.7422   15.4381 C.ar    1  UNL1        0.1021
     12 N          66.8984   93.8155   14.5548 N.ar    1  UNL1       -0.2269
     13 C          66.3845   93.5887   13.1640 C.ar    1  UNL1        0.1406
     14 N          66.6052   94.3303   11.8790 N.ar    1  UNL1       -0.3374
     15 C          65.9445   93.8584   10.6177 C.ar    1  UNL1        0.0735
     16 C          65.0631   92.6450   10.6415 C.ar    1  UNL1        0.0186
     17 C          64.8424   91.9033   11.9264 C.ar    1  UNL1        0.0046
     18 C          65.5031   92.3752   13.1877 C.ar    1  UNL1        0.0370
     19 H          67.1837   95.1267   11.8634 H       1  UNL1        0.1674
     20 C          64.3303   84.5097   14.6459 C.3     1  UNL1        0.1117
     21 C          62.5814   84.4498   11.0839 C.ar    1  UNL1        0.0641
     22 C          63.2185   83.2357   10.4757 C.ar    1  UNL1        0.0158
     23 C          64.2262   82.4462   11.2575 C.ar    1  UNL1        0.0010
     24 C          64.5969   82.8709   12.6476 C.ar    1  UNL1       -0.0037
     25 C          63.9597   84.0851   13.2559 C.ar    1  UNL1       -0.0118
     26 C          62.9520   84.8745   12.4740 C.ar    1  UNL1        0.0121
     27 N          61.5737   85.2393   10.3021 N.pl3   1  UNL1       -0.2188
     28 H          60.7686   84.7966    9.9484 H       1  UNL1        0.1734
     29 S          61.7925   86.7032   10.0594 S.O2    1  UNL1        0.0539
     30 O          62.6943   86.3771    8.9058 O.2     1  UNL1       -0.1545
     31 O          60.8909   87.0294   11.2128 O.2     1  UNL1       -0.1545
     32 C          62.0115   88.1672    9.8165 C.3     1  UNL1        0.1724
     33 C          62.1310   89.1104   10.9767 C.3     1  UNL1        0.0273
     34 C          59.9506   90.4985   11.2388 C.3     1  UNL1        0.0001
     35 C          61.4202   90.4309   10.9461 C.3     1  UNL1        0.0019
@<TRIPOS>BOND
     1    34    35    1
     2    35    33    1
     3    33    32    1
     4    32    29    1
     5    29    30    2
     6    29    31    2
     7    29    27    1
     8    27    21    1
     9    21    22   ar
    10    22    23   ar
    11    23    24   ar
    12    24    25   ar
    13    25    20    1
    14    20     1    1
    15     1     2    2
    16     1     3   am
    17     3     5    1
    18     5     6   ar
    19     6     7   ar
    20     7    10    1
    21    10    11   ar
    22    11    12   ar
    23    12    13   ar
    24    13    14   ar
    25    14    15   ar
    26    15    16   ar
    27    16    17   ar
    28    17    18   ar
    29     7     8   ar
    30     8     9   ar
    31    25    26   ar
    32    26    21   ar
    33     9     5   ar
    34    18    10   ar
    35    18    13    1
    36    27    28    1
    37     3     4    1
    38    14    19    1
@<TRIPOS>MOLECULE
*****
 35 38 0 0 0
SMALL
GASTEIGER

@<TRIPOS>ATOM
      1 C          63.6207   89.1424   15.5442 C.2     1  UNL1        0.2320
      2 O          62.4189   88.9087   16.4108 O.2     1  UNL1       -0.2744
      3 N          64.3176   87.9811   14.8994 N.am    1  UNL1       -0.2639
      4 H          65.1064   88.1345   14.3306 H       1  UNL1        0.1567
      5 C          63.8128   86.5862   15.1213 C.ar    1  UNL1        0.1655
      6 N          63.5741   85.5553   14.0581 N.ar    1  UNL1       -0.2239
      7 C          63.0718   84.3092   14.7250 C.ar    1  UNL1        0.0913
      8 C          62.9999   84.5699   16.2004 C.ar    1  UNL1        0.0573
      9 S          63.4579   85.9771   16.4453 S.2     1  UNL1       -0.0508
     10 C          62.7055   83.0275   14.0372 C.ar    1  UNL1        0.0403
     11 C          61.8435   81.9382   14.6034 C.ar    1  UNL1        0.1021
     12 N          61.7423   80.8475   13.5786 N.ar    1  UNL1       -0.2269
     13 C          62.5417   81.2627   12.3792 C.ar    1  UNL1        0.1406
     14 N          62.8045   80.5879   11.0656 N.ar    1  UNL1       -0.3374
     15 C          63.6626   81.2605   10.0354 C.ar    1  UNL1        0.0735
     16 C          64.2579   82.6078   10.3189 C.ar    1  UNL1        0.0186
     17 C          63.9951   83.2825   11.6325 C.ar    1  UNL1        0.0046
     18 C          63.1371   82.6100   12.6626 C.ar    1  UNL1        0.0370
     19 H          62.4138   79.7036   10.8795 H       1  UNL1        0.1674
     20 C          64.1256   90.5373   15.3223 C.3     1  UNL1        0.1117
     21 C          65.6369   92.5144   12.2309 C.ar    1  UNL1        0.0641
     22 C          64.7094   92.0794   11.1353 C.ar    1  UNL1        0.0158
     23 C          63.5872   91.1304   11.4353 C.ar    1  UNL1        0.0010
     24 C          63.3925   90.6163   12.8310 C.ar    1  UNL1       -0.0037
     25 C          64.3202   91.0514   13.9267 C.ar    1  UNL1       -0.0118
     26 C          65.4424   92.0004   13.6265 C.ar    1  UNL1        0.0121
     27 N          66.7592   93.4634   11.9308 N.pl3   1  UNL1       -0.2188
     28 H          67.3962   93.7120   12.6391 H       1  UNL1        0.1734
     29 S          66.9107   94.0337   10.5518 S.O2    1  UNL1        0.0539
     30 O          65.9813   95.1544   10.9131 O.2     1  UNL1       -0.1545
     31 O          67.8400   92.9131   10.1904 O.2     1  UNL1       -0.1545
     32 C          67.0622   94.6040    9.1727 C.3     1  UNL1        0.1724
     33 C          67.5731   96.0026    8.9913 C.3     1  UNL1        0.0273
     34 C          65.6261   96.6911    7.4150 C.3     1  UNL1        0.0001
     35 C          67.0436   96.8559    7.8772 C.3     1  UNL1        0.0019
@<TRIPOS>BOND
     1    34    35    1
     2    35    33    1
     3    33    32    1
     4    32    29    1
     5    29    30    2
     6    29    31    2
     7    29    27    1
     8    27    21    1
     9    21    22   ar
    10    22    23   ar
    11    23    24   ar
    12    24    25   ar
    13    25    20    1
    14    20     1    1
    15     1     2    2
    16     1     3   am
    17     3     5    1
    18     5     6   ar
    19     6     7   ar
    20     7    10    1
    21    10    11   ar
    22    11    12   ar
    23    12    13   ar
    24    13    14   ar
    25    14    15   ar
    26    15    16   ar
    27    16    17   ar
    28    17    18   ar
    29     7     8   ar
    30     8     9   ar
    31    25    26   ar
    32    26    21   ar
    33     9     5   ar
    34    18    10   ar
    35    18    13    1
    36    27    28    1
    37     3     4    1
    38    14    19    1
@<TRIPOS>MOLECULE
*****
 35 38 0 0 0
SMALL
GASTEIGER

@<TRIPOS>ATOM
      1 C          63.6571   89.1930   13.5465 C.2     1  UNL1        0.2320
      2 O          63.6604   87.7820   13.0375 O.2     1  UNL1       -0.2744
      3 N          62.6050   90.1557   13.0813 N.am    1  UNL1       -0.2639
      4 H          62.6028   91.0817   13.4154 H       1  UNL1        0.1567
      5 C          61.5563   89.7074   12.1071 C.ar    1  UNL1        0.1655
      6 N          61.7377   88.6848   11.0248 N.ar    1  UNL1       -0.2239
      7 C          60.4355   88.5484   10.2929 C.ar    1  UNL1        0.0913
      8 C          59.4492   89.4867   10.9228 C.ar    1  UNL1        0.0573
      9 S          60.1419   90.2030   12.0441 S.2     1  UNL1       -0.0508
     10 C          60.1667   87.6342    9.1345 C.ar    1  UNL1        0.0403
     11 C          58.9005   87.5762    8.3324 C.ar    1  UNL1        0.1021
     12 N          59.0682   86.5236    7.2770 N.ar    1  UNL1       -0.2269
     13 C          60.4381   85.9312    7.4267 C.ar    1  UNL1        0.1406
     14 N          61.1550   84.8554    6.6660 N.ar    1  UNL1       -0.3374
     15 C          62.5508   84.4660    7.0533 C.ar    1  UNL1        0.0735
     16 C          63.2297   85.1523    8.2013 C.ar    1  UNL1        0.0186
     17 C          62.5128   86.2281    8.9620 C.ar    1  UNL1        0.0046
     18 C          61.1170   86.6175    8.5747 C.ar    1  UNL1        0.0370
     19 H          60.7094   84.4049    5.9125 H       1  UNL1        0.1674
     20 C          64.7058   89.6413   14.5208 C.3     1  UNL1        0.1117
     21 C          65.9261   93.0546   12.9052 C.ar    1  UNL1        0.0641
     22 C          67.2442   93.2403   13.5966 C.ar    1  UNL1        0.0158
     23 C          67.7162   92.2264   14.5962 C.ar    1  UNL1        0.0010
     24 C          66.8700   91.0266   14.9042 C.ar    1  UNL1       -0.0037
     25 C          65.5519   90.8410   14.2127 C.ar    1  UNL1       -0.0118
     26 C          65.0799   91.8550   13.2132 C.ar    1  UNL1        0.0121
     27 N          65.4540   94.0686   11.9056 N.pl3   1  UNL1       -0.2188
     28 H          64.6911   94.6528   12.1198 H       1  UNL1        0.1734
     29 S          66.1444   94.1925   10.5797 S.O2    1  UNL1        0.0539
     30 O          66.9007   95.3854   11.0850 O.2     1  UNL1       -0.1545
     31 O          65.3882   92.9997   10.0744 O.2     1  UNL1       -0.1545
     32 C          66.8349   94.3165    9.2538 C.3     1  UNL1        0.1724
     33 C          68.2652   93.8880    9.1100 C.3     1  UNL1        0.0273
     34 C          68.5821   91.7158   10.4996 C.3     1  UNL1        0.0001
     35 C          68.6232   92.4332    9.1829 C.3     1  UNL1        0.0019
@<TRIPOS>BOND
     1    34    35    1
     2    35    33    1
     3    33    32    1
     4    32    29    1
     5    29    30    2
     6    29    31    2
     7    29    27    1
     8    27    21    1
     9    21    22   ar
    10    22    23   ar
    11    23    24   ar
    12    24    25   ar
    13    25    20    1
    14    20     1    1
    15     1     2    2
    16     1     3   am
    17     3     5    1
    18     5     6   ar
    19     6     7   ar
    20     7    10    1
    21    10    11   ar
    22    11    12   ar
    23    12    13   ar
    24    13    14   ar
    25    14    15   ar
    26    15    16   ar
    27    16    17   ar
    28    17    18   ar
    29     7     8   ar
    30     8     9   ar
    31    25    26   ar
    32    26    21   ar
    33     9     5   ar
    34    18    10   ar
    35    18    13    1
    36    27    28    1
    37     3     4    1
    38    14    19    1
@<TRIPOS>MOLECULE
*****
 35 38 0 0 0
SMALL
GASTEIGER

@<TRIPOS>ATOM
      1 C          63.9744   88.9499   14.1441 C.2     1  UNL1        0.2320
      2 O          64.5138   87.6180   14.5743 O.2     1  UNL1       -0.2744
      3 N          63.1246   89.0525   12.9124 N.am    1  UNL1       -0.2639
      4 H          62.7705   89.9266   12.6300 H       1  UNL1        0.1567
      5 C          62.8141   87.8232   12.1109 C.ar    1  UNL1        0.1655
      6 N          63.3324   86.4414   12.3792 N.ar    1  UNL1       -0.2239
      7 C          62.7695   85.5241   11.3345 C.ar    1  UNL1        0.0913
      8 C          61.9031   86.3389   10.4204 C.ar    1  UNL1        0.0573
      9 S          61.9307   87.7598   10.9002 S.2     1  UNL1       -0.0508
     10 C          63.0275   84.0506   11.2234 C.ar    1  UNL1        0.0403
     11 C          63.6461   83.3499   10.0502 C.ar    1  UNL1        0.1021
     12 N          63.7131   81.8854   10.3677 N.ar    1  UNL1       -0.2269
     13 C          63.1359   81.6810   11.7371 C.ar    1  UNL1        0.1406
     14 N          62.9415   80.4493   12.5707 N.ar    1  UNL1       -0.3374
     15 C          62.3233   80.5558   13.9332 C.ar    1  UNL1        0.0735
     16 C          61.8996   81.8940   14.4621 C.ar    1  UNL1        0.0186
     17 C          62.0941   83.1257   13.6284 C.ar    1  UNL1        0.0046
     18 C          62.7122   83.0192   12.2659 C.ar    1  UNL1        0.0370
     19 H          63.2196   79.5710   12.2236 H       1  UNL1        0.1674
     20 C          64.2849   90.1792   14.9456 C.3     1  UNL1        0.1117
     21 C          66.0341   93.1680   13.0071 C.ar    1  UNL1        0.0641
     22 C          67.4385   93.0564   13.5220 C.ar    1  UNL1        0.0158
     23 C          67.7918   91.9858   14.5114 C.ar    1  UNL1        0.0010
     24 C          66.7405   91.0267   14.9860 C.ar    1  UNL1       -0.0037
     25 C          65.3361   91.1383   14.4710 C.ar    1  UNL1       -0.0118
     26 C          64.9829   92.2090   13.4816 C.ar    1  UNL1        0.0121
     27 N          65.6809   94.2386   12.0177 N.pl3   1  UNL1       -0.2188
     28 H          65.0957   94.9834   12.2862 H       1  UNL1        0.1734
     29 S          66.2192   94.1745   10.6191 S.O2    1  UNL1        0.0539
     30 O          65.3271   93.0039   10.3293 O.2     1  UNL1       -0.1545
     31 O          67.1113   95.3450   10.9087 O.2     1  UNL1       -0.1545
     32 C          66.7575   94.1103    9.2204 C.3     1  UNL1        0.1724
     33 C          68.2314   93.9525    8.9904 C.3     1  UNL1        0.0273
     34 C          68.4533   91.7227   10.3052 C.3     1  UNL1        0.0001
     35 C          68.8801   92.6129    9.1759 C.3     1  UNL1        0.0019
@<TRIPOS>BOND
     1    34    35    1
     2    35    33    1
     3    33    32    1
     4    32    29    1
     5    29    30    2
     6    29    31    2
     7    29    27    1
     8    27    21    1
     9    21    22   ar
    10    22    23   ar
    11    23    24   ar
    12    24    25   ar
    13    25    20    1
    14    20     1    1
    15     1     2    2
    16     1     3   am
    17     3     5    1
    18     5     6   ar
    19     6     7   ar
    20     7    10    1
    21    10    11   ar
    22    11    12   ar
    23    12    13   ar
    24    13    14   ar
    25    14    15   ar
    26    15    16   ar
    27    16    17   ar
    28    17    18   ar
    29     7     8   ar
    30     8     9   ar
    31    25    26   ar
    32    26    21   ar
    33     9     5   ar
    34    18    10   ar
    35    18    13    1
    36    27    28    1
    37     3     4    1
    38    14    19    1
@<TRIPOS>MOLECULE
*****
 35 38 0 0 0
SMALL
GASTEIGER

@<TRIPOS>ATOM
      1 C          62.8039   85.8842   16.1757 C.2     1  UNL1        0.2320
      2 O          62.0394   86.5985   17.2505 O.2     1  UNL1       -0.2744
      3 N          63.7126   86.6540   15.2638 N.am    1  UNL1       -0.2639
      4 H          64.2144   86.1852   14.5583 H       1  UNL1        0.1567
      5 C          63.8568   88.1380   15.4266 C.ar    1  UNL1        0.1655
      6 N          64.8069   89.0198   14.6717 N.ar    1  UNL1       -0.2239
      7 C          64.6135   90.4277   15.1515 C.ar    1  UNL1        0.0913
      8 C          63.5439   90.4163   16.2030 C.ar    1  UNL1        0.0573
      9 S          63.0762   89.0012   16.3731 S.2     1  UNL1       -0.0508
     10 C          65.3589   91.6351   14.6652 C.ar    1  UNL1        0.0403
     11 C          66.2193   92.5359   15.5009 C.ar    1  UNL1        0.1021
     12 N          66.7668   93.6113   14.6100 N.ar    1  UNL1       -0.2269
     13 C          66.2449   93.3751   13.2236 C.ar    1  UNL1        0.1406
     14 N          66.4496   94.1144   11.9347 N.ar    1  UNL1       -0.3374
     15 C          65.7841   93.6323   10.6798 C.ar    1  UNL1        0.0735
     16 C          64.9140   92.4110   10.7139 C.ar    1  UNL1        0.0186
     17 C          64.7093   91.6717   12.0029 C.ar    1  UNL1        0.0046
     18 C          65.3748   92.1538   13.2578 C.ar    1  UNL1        0.0370
     19 H          67.0207   94.9160   11.9123 H       1  UNL1        0.1674
     20 C          62.6598   84.4000   16.0128 C.3     1  UNL1        0.1117
     21 C          62.7874   84.0476   12.0619 C.ar    1  UNL1        0.0641
     22 C          62.4318   82.6000   11.8948 C.ar    1  UNL1        0.0158
     23 C          62.1522   81.7523   13.1003 C.ar    1  UNL1        0.0010
     24 C          62.2282   82.3523   14.4731 C.ar    1  UNL1       -0.0037
     25 C          62.5838   83.8000   14.6401 C.ar    1  UNL1       -0.0118
     26 C          62.8634   84.6476   13.4345 C.ar    1  UNL1        0.0121
     27 N          63.0669   84.8952   10.8563 N.pl3   1  UNL1       -0.2188
     28 H          63.9751   84.9281   10.4775 H       1  UNL1        0.1734
     29 S          61.9629   85.6929   10.2279 S.O2    1  UNL1        0.0539
     30 O          62.4523   85.2974    8.8662 O.2     1  UNL1       -0.1545
     31 O          61.4735   86.0884   11.5895 O.2     1  UNL1       -0.1545
     32 C          60.8589   86.4905    9.5994 C.3     1  UNL1        0.1724
     33 C          60.3940   86.1637    8.2112 C.3     1  UNL1        0.0273
     34 C          59.3196   88.4575    7.6331 C.3     1  UNL1        0.0001
     35 C          59.2871   86.9587    7.5844 C.3     1  UNL1        0.0019
@<TRIPOS>BOND
     1    34    35    1
     2    35    33    1
     3    33    32    1
     4    32    29    1
     5    29    30    2
     6    29    31    2
     7    29    27    1
     8    27    21    1
     9    21    22   ar
    10    22    23   ar
    11    23    24   ar
    12    24    25   ar
    13    25    20    1
    14    20     1    1
    15     1     2    2
    16     1     3   am
    17     3     5    1
    18     5     6   ar
    19     6     7   ar
    20     7    10    1
    21    10    11   ar
    22    11    12   ar
    23    12    13   ar
    24    13    14   ar
    25    14    15   ar
    26    15    16   ar
    27    16    17   ar
    28    17    18   ar
    29     7     8   ar
    30     8     9   ar
    31    25    26   ar
    32    26    21   ar
    33     9     5   ar
    34    18    10   ar
    35    18    13    1
    36    27    28    1
    37     3     4    1
    38    14    19    1
@<TRIPOS>MOLECULE
*****
 35 38 0 0 0
SMALL
GASTEIGER

@<TRIPOS>ATOM
      1 C          62.4109   85.8016   10.2976 C.2     1  UNL1        0.2320
      2 O          62.9058   86.5879    9.1200 O.2     1  UNL1       -0.2744
      3 N          62.1417   86.4929   11.6013 N.am    1  UNL1       -0.2639
      4 H          61.8169   85.9768   12.3742 H       1  UNL1        0.1567
      5 C          62.3674   87.9703   11.7274 C.ar    1  UNL1        0.1655
      6 N          63.5054   88.6301   12.4482 N.ar    1  UNL1       -0.2239
      7 C          63.3360   90.1151   12.3211 C.ar    1  UNL1        0.0913
      8 C          62.0933   90.3731   11.5217 C.ar    1  UNL1        0.0573
      9 S          61.4947   89.0476   11.1547 S.2     1  UNL1       -0.0508
     10 C          64.2490   91.1588   12.8931 C.ar    1  UNL1        0.0403
     11 C          64.5698   91.3492   14.3459 C.ar    1  UNL1        0.1021
     12 N          65.5206   92.5034   14.4632 N.ar    1  UNL1       -0.2269
     13 C          65.7874   93.0263   13.0829 C.ar    1  UNL1        0.1406
     14 N          66.6445   94.1519   12.5843 N.ar    1  UNL1       -0.3374
     15 C          66.7157   94.4463   11.1152 C.ar    1  UNL1        0.0735
     16 C          65.9298   93.6152   10.1448 C.ar    1  UNL1        0.0186
     17 C          65.0728   92.4897   10.6434 C.ar    1  UNL1        0.0046
     18 C          65.0016   92.1953   12.1124 C.ar    1  UNL1        0.0370
     19 H          67.1603   94.6973   13.2212 H       1  UNL1        0.1674
     20 C          62.1852   84.3240   10.1715 C.3     1  UNL1        0.1117
     21 C          63.7540   82.9972   13.5669 C.ar    1  UNL1        0.0641
     22 C          63.8184   81.5239   13.2928 C.ar    1  UNL1        0.0158
     23 C          63.3385   80.9839   11.9782 C.ar    1  UNL1        0.0010
     24 C          62.7940   81.9173   10.9377 C.ar    1  UNL1       -0.0037
     25 C          62.7296   83.3907   11.2119 C.ar    1  UNL1       -0.0118
     26 C          63.2096   83.9306   12.5265 C.ar    1  UNL1        0.0121
     27 N          64.2340   83.5372   14.8815 N.pl3   1  UNL1       -0.2188
     28 H          65.1223   83.2847   15.2225 H       1  UNL1        0.1734
     29 S          63.3605   84.4620   15.6763 S.O2    1  UNL1        0.0539
     30 O          62.2970   83.4057   15.7365 O.2     1  UNL1       -0.1545
     31 O          64.4238   85.5182   15.6162 O.2     1  UNL1       -0.1545
     32 C          62.4869   85.3867   16.4712 C.3     1  UNL1        0.1724
     33 C          63.0995   86.3254   17.4680 C.3     1  UNL1        0.0273
     34 C          63.1902   88.7785   16.6173 C.3     1  UNL1        0.0001
     35 C          62.6267   87.7466   17.5488 C.3     1  UNL1        0.0019
@<TRIPOS>BOND
     1    34    35    1
     2    35    33    1
     3    33    32    1
     4    32    29    1
     5    29    30    2
     6    29    31    2
     7    29    27    1
     8    27    21    1
     9    21    22   ar
    10    22    23   ar
    11    23    24   ar
    12    24    25   ar
    13    25    20    1
    14    20     1    1
    15     1     2    2
    16     1     3   am
    17     3     5    1
    18     5     6   ar
    19     6     7   ar
    20     7    10    1
    21    10    11   ar
    22    11    12   ar
    23    12    13   ar
    24    13    14   ar
    25    14    15   ar
    26    15    16   ar
    27    16    17   ar
    28    17    18   ar
    29     7     8   ar
    30     8     9   ar
    31    25    26   ar
    32    26    21   ar
    33     9     5   ar
    34    18    10   ar
    35    18    13    1
    36    27    28    1
    37     3     4    1
    38    14    19    1
