@<TRIPOS>MOLECULE
*****
 24 27 0 0 0
SMALL
GASTEIGER

@<TRIPOS>ATOM
      1 C          64.6485   91.6642   12.4016 C.2     1  UNL1       -0.0420
      2 C          63.6583   90.8640   13.1947 C.2     1  UNL1       -0.0240
      3 C          62.6115   90.3534   12.2495 C.ar    1  UNL1       -0.0078
      4 C          61.3901   89.5098   12.4650 C.ar    1  UNL1       -0.0006
      5 C          60.5120   89.1509   11.3031 C.ar    1  UNL1       -0.0000
      6 C          60.8553   89.6355    9.9257 C.ar    1  UNL1       -0.0003
      7 C          62.0767   90.4791    9.7102 C.ar    1  UNL1       -0.0040
      8 C          62.9548   90.8381   10.8720 C.ar    1  UNL1       -0.0184
      9 C          64.2137   91.6482   10.9661 C.3     1  UNL1        0.0480
     10 C          65.8607   92.3585   12.9480 C.3     1  UNL1        0.0394
     11 C          66.3209   93.6515   12.3429 C.3     1  UNL1        0.0765
     12 F          69.1096   92.1070    8.1335 F       1  UNL1       -0.2357
     13 C          68.2979   92.9421    9.0788 C.3     1  UNL1        0.1782
     14 C          67.8736   94.3638    8.8575 C.3     1  UNL1        0.0540
     15 C          67.0814   94.8025   10.0533 C.3     1  UNL1        0.0750
     16 N          67.0160   93.6521   11.0136 N.3     1  UNL1       -0.2700
     17 C          67.7679   92.5022   10.4113 C.3     1  UNL1        0.1078
     18 C          63.7064   90.6176   14.6736 C.3     1  UNL1        0.0730
     19 C          63.6772   89.2137   15.2014 C.ar    1  UNL1        0.0825
     20 C          63.0416   88.9246   16.5289 C.ar    1  UNL1        0.1139
     21 N          63.0124   87.5209   17.0567 N.ar    1  UNL1       -0.2394
     22 C          63.6189   86.4062   16.2569 C.ar    1  UNL1        0.1195
     23 C          64.2546   86.6953   14.9294 C.ar    1  UNL1        0.1191
     24 N          64.2838   88.0990   14.4016 N.ar    1  UNL1       -0.2446
@<TRIPOS>BOND
     1    12    13    1
     2    13    14    1
     3    14    15    1
     4    15    16    1
     5    16    11    1
     6    11    10    1
     7    10     1    1
     8     1     2    2
     9     2    18    1
    10    18    19    1
    11    19    20   ar
    12    20    21   ar
    13    21    22   ar
    14    22    23   ar
    15    23    24   ar
    16     2     3    1
    17     3     4   ar
    18     4     5   ar
    19     5     6   ar
    20     6     7   ar
    21     7     8   ar
    22     8     9    1
    23    16    17    1
    24    17    13    1
    25     9     1    1
    26    24    19   ar
    27     8     3   ar
@<TRIPOS>MOLECULE
*****
 24 27 0 0 0
SMALL
GASTEIGER

@<TRIPOS>ATOM
      1 C          62.4134   83.6526   14.3713 C.2     1  UNL1       -0.0420
      2 C          62.8561   83.9108   12.9616 C.2     1  UNL1       -0.0240
      3 C          62.9040   82.5953   12.2424 C.ar    1  UNL1       -0.0078
      4 C          63.2704   82.2345   10.8334 C.ar    1  UNL1       -0.0006
      5 C          63.2238   80.8024   10.3896 C.ar    1  UNL1       -0.0000
      6 C          62.8108   79.7311   11.3549 C.ar    1  UNL1       -0.0003
      7 C          62.4444   80.0919   12.7640 C.ar    1  UNL1       -0.0040
      8 C          62.4910   81.5240   13.2077 C.ar    1  UNL1       -0.0184
      9 C          62.1878   82.1774   14.5234 C.3     1  UNL1        0.0480
     10 C          62.2288   84.6877   15.4411 C.3     1  UNL1        0.0394
     11 C          63.4225   85.3808   16.0281 C.3     1  UNL1        0.0765
     12 F          63.1899   90.5914   16.8504 F       1  UNL1       -0.2357
     13 C          63.4836   89.2563   16.2329 C.3     1  UNL1        0.1782
     14 C          64.2145   89.0226   14.9440 C.3     1  UNL1        0.0540
     15 C          64.2805   87.5424   14.7104 C.3     1  UNL1        0.0750
     16 N          63.5905   86.8612   15.8549 N.3     1  UNL1       -0.2700
     17 C          63.0979   87.9205   16.7960 C.3     1  UNL1        0.1078
     18 C          63.1918   85.2495   12.3741 C.3     1  UNL1        0.0730
     19 C          62.3151   85.8435   11.3117 C.ar    1  UNL1        0.0825
     20 C          62.5195   85.4679    9.8740 C.ar    1  UNL1        0.1139
     21 N          61.6428   86.0619    8.8116 N.ar    1  UNL1       -0.2394
     22 C          60.5617   87.0316    9.1871 C.ar    1  UNL1        0.1195
     23 C          60.3573   87.4072   10.6249 C.ar    1  UNL1        0.1191
     24 N          61.2340   86.8132   11.6872 N.ar    1  UNL1       -0.2446
@<TRIPOS>BOND
     1    12    13    1
     2    13    14    1
     3    14    15    1
     4    15    16    1
     5    16    11    1
     6    11    10    1
     7    10     1    1
     8     1     2    2
     9     2    18    1
    10    18    19    1
    11    19    20   ar
    12    20    21   ar
    13    21    22   ar
    14    22    23   ar
    15    23    24   ar
    16     2     3    1
    17     3     4   ar
    18     4     5   ar
    19     5     6   ar
    20     6     7   ar
    21     7     8   ar
    22     8     9    1
    23    16    17    1
    24    17    13    1
    25     9     1    1
    26    24    19   ar
    27     8     3   ar
@<TRIPOS>MOLECULE
*****
 24 27 0 0 0
SMALL
GASTEIGER

@<TRIPOS>ATOM
      1 C          63.3910   90.3172   12.4473 C.2     1  UNL1       -0.0420
      2 C          63.6578   88.9214   12.9275 C.2     1  UNL1       -0.0240
      3 C          62.9284   87.9727   12.0232 C.ar    1  UNL1       -0.0078
      4 C          62.8249   86.4763   12.0116 C.ar    1  UNL1       -0.0006
      5 C          62.0038   85.7894   10.9610 C.ar    1  UNL1       -0.0000
      6 C          61.2861   86.5988    9.9219 C.ar    1  UNL1       -0.0003
      7 C          61.3896   88.0952    9.9334 C.ar    1  UNL1       -0.0040
      8 C          62.2107   88.7821   10.9840 C.ar    1  UNL1       -0.0184
      9 C          62.4966   90.2311   11.2462 C.3     1  UNL1        0.0480
     10 C          63.9248   91.5777   13.0605 C.3     1  UNL1        0.0394
     11 C          65.3023   92.0572   12.7104 C.3     1  UNL1        0.0765
     12 F          68.5290   94.5443   16.0696 F       1  UNL1       -0.2357
     13 C          67.7863   93.4643   15.3401 C.3     1  UNL1        0.1782
     14 C          67.9002   91.9902   15.5934 C.3     1  UNL1        0.0540
     15 C          66.9836   91.2837   14.6391 C.3     1  UNL1        0.0750
     16 N          66.3031   92.3211   13.7961 N.3     1  UNL1       -0.2700
     17 C          66.7992   93.6689   14.2293 C.3     1  UNL1        0.1078
     18 C          64.5053   88.5411   14.1052 C.3     1  UNL1        0.0730
     19 C          63.8877   87.8392   15.2783 C.ar    1  UNL1        0.0825
     20 C          63.3184   88.6361   16.4144 C.ar    1  UNL1        0.1139
     21 N          62.7007   87.9344   17.5874 N.ar    1  UNL1       -0.2394
     22 C          62.6524   86.4356   17.6243 C.ar    1  UNL1        0.1195
     23 C          63.2217   85.6387   16.4882 C.ar    1  UNL1        0.1191
     24 N          63.8393   86.3404   15.3152 N.ar    1  UNL1       -0.2446
@<TRIPOS>BOND
     1    12    13    1
     2    13    14    1
     3    14    15    1
     4    15    16    1
     5    16    11    1
     6    11    10    1
     7    10     1    1
     8     1     2    2
     9     2    18    1
    10    18    19    1
    11    19    20   ar
    12    20    21   ar
    13    21    22   ar
    14    22    23   ar
    15    23    24   ar
    16     2     3    1
    17     3     4   ar
    18     4     5   ar
    19     5     6   ar
    20     6     7   ar
    21     7     8   ar
    22     8     9    1
    23    16    17    1
    24    17    13    1
    25     9     1    1
    26    24    19   ar
    27     8     3   ar
@<TRIPOS>MOLECULE
*****
 24 27 0 0 0
SMALL
GASTEIGER

@<TRIPOS>ATOM
      1 C          60.4251   87.5292   10.4567 C.2     1  UNL1       -0.0420
      2 C          61.7741   86.8733   10.4561 C.2     1  UNL1       -0.0240
      3 C          61.9181   86.1104    9.1727 C.ar    1  UNL1       -0.0078
      4 C          63.0337   85.2716    8.6233 C.ar    1  UNL1       -0.0006
      5 C          62.8893   84.6172    7.2814 C.ar    1  UNL1       -0.0000
      6 C          61.6292   84.8015    6.4888 C.ar    1  UNL1       -0.0003
      7 C          60.5136   85.6402    7.0381 C.ar    1  UNL1       -0.0040
      8 C          60.6580   86.2947    8.3801 C.ar    1  UNL1       -0.0184
      9 C          59.7353   87.1715    9.1736 C.3     1  UNL1        0.0480
     10 C          59.8644   88.3913   11.5486 C.3     1  UNL1        0.0394
     11 C          60.1770   89.8579   11.5815 C.3     1  UNL1        0.0765
     12 F          65.0626   91.0714   13.1752 F       1  UNL1       -0.2357
     13 C          63.8495   90.8786   12.3142 C.3     1  UNL1        0.1782
     14 C          63.7495   91.1875   10.8498 C.3     1  UNL1        0.0540
     15 C          62.3616   90.8428   10.3971 C.3     1  UNL1        0.0750
     16 N          61.6038   90.3208   11.5817 N.3     1  UNL1       -0.2700
     17 C          62.5234   90.3429   12.7667 C.3     1  UNL1        0.1078
     18 C          62.7993   86.9645   11.5473 C.3     1  UNL1        0.0730
     19 C          62.9852   85.8201   12.4992 C.ar    1  UNL1        0.0825
     20 C          62.5389   84.4416   12.1111 C.ar    1  UNL1        0.1139
     21 N          62.7248   83.2973   13.0628 N.ar    1  UNL1       -0.2394
     22 C          63.3571   83.5314   14.4027 C.ar    1  UNL1        0.1195
     23 C          63.8035   84.9099   14.7908 C.ar    1  UNL1        0.1191
     24 N          63.6176   86.0542   13.8391 N.ar    1  UNL1       -0.2446
@<TRIPOS>BOND
     1    12    13    1
     2    13    14    1
     3    14    15    1
     4    15    16    1
     5    16    11    1
     6    11    10    1
     7    10     1    1
     8     1     2    2
     9     2    18    1
    10    18    19    1
    11    19    20   ar
    12    20    21   ar
    13    21    22   ar
    14    22    23   ar
    15    23    24   ar
    16     2     3    1
    17     3     4   ar
    18     4     5   ar
    19     5     6   ar
    20     6     7   ar
    21     7     8   ar
    22     8     9    1
    23    16    17    1
    24    17    13    1
    25     9     1    1
    26    24    19   ar
    27     8     3   ar
@<TRIPOS>MOLECULE
*****
 24 27 0 0 0
SMALL
GASTEIGER

@<TRIPOS>ATOM
      1 C          63.8417   88.6811   13.4723 C.2     1  UNL1       -0.0420
      2 C          63.6397   87.2012   13.3338 C.2     1  UNL1       -0.0240
      3 C          62.8647   86.9551   12.0733 C.ar    1  UNL1       -0.0078
      4 C          62.3754   85.6936   11.4260 C.ar    1  UNL1       -0.0006
      5 C          61.6092   85.7598   10.1382 C.ar    1  UNL1       -0.0000
      6 C          61.3321   87.0876    9.4978 C.ar    1  UNL1       -0.0003
      7 C          61.8213   88.3491   10.1451 C.ar    1  UNL1       -0.0040
      8 C          62.5876   88.2829   11.4328 C.ar    1  UNL1       -0.0184
      9 C          63.1914   89.3496   12.2975 C.3     1  UNL1        0.0480
     10 C          64.5666   89.3712   14.5896 C.3     1  UNL1        0.0394
     11 C          64.2719   90.8089   14.8996 C.3     1  UNL1        0.0765
     12 F          66.7275   94.1769   11.6580 F       1  UNL1       -0.2357
     13 C          66.3046   93.4364   12.8920 C.3     1  UNL1        0.1782
     14 C          66.8292   93.6621   14.2790 C.3     1  UNL1        0.0540
     15 C          66.1317   92.7053   15.1999 C.3     1  UNL1        0.0750
     16 N          65.1759   91.8883   14.3820 N.3     1  UNL1       -0.2700
     17 C          65.2827   92.3401   12.9556 C.3     1  UNL1        0.1078
     18 C          64.1272   86.1516   14.2881 C.3     1  UNL1        0.0730
     19 C          63.7362   84.7172   14.0891 C.ar    1  UNL1        0.0825
     20 C          62.5324   84.1635   14.7922 C.ar    1  UNL1        0.1139
     21 N          62.1413   82.7291   14.5932 N.ar    1  UNL1       -0.2394
     22 C          62.9541   81.8484   13.6912 C.ar    1  UNL1        0.1195
     23 C          64.1579   82.4021   12.9881 C.ar    1  UNL1        0.1191
     24 N          64.5490   83.8364   13.1870 N.ar    1  UNL1       -0.2446
@<TRIPOS>BOND
     1    12    13    1
     2    13    14    1
     3    14    15    1
     4    15    16    1
     5    16    11    1
     6    11    10    1
     7    10     1    1
     8     1     2    2
     9     2    18    1
    10    18    19    1
    11    19    20   ar
    12    20    21   ar
    13    21    22   ar
    14    22    23   ar
    15    23    24   ar
    16     2     3    1
    17     3     4   ar
    18     4     5   ar
    19     5     6   ar
    20     6     7   ar
    21     7     8   ar
    22     8     9    1
    23    16    17    1
    24    17    13    1
    25     9     1    1
    26    24    19   ar
    27     8     3   ar
@<TRIPOS>MOLECULE
*****
 24 27 0 0 0
SMALL
GASTEIGER

@<TRIPOS>ATOM
      1 C          64.0220   89.2119   13.7815 C.2     1  UNL1       -0.0420
      2 C          63.8754   87.7280   13.6189 C.2     1  UNL1       -0.0240
      3 C          63.1125   87.4736   12.3526 C.ar    1  UNL1       -0.0078
      4 C          62.6717   86.2053   11.6841 C.ar    1  UNL1       -0.0006
      5 C          61.9061   86.2637   10.3955 C.ar    1  UNL1       -0.0000
      6 C          61.5813   87.5904    9.7756 C.ar    1  UNL1       -0.0003
      7 C          62.0221   88.8587   10.4442 C.ar    1  UNL1       -0.0040
      8 C          62.7877   88.8003   11.7327 C.ar    1  UNL1       -0.0184
      9 C          63.3498   89.8746   12.6158 C.3     1  UNL1        0.0480
     10 C          64.7186   89.9105   14.9115 C.3     1  UNL1        0.0394
     11 C          64.9261   91.3952   14.8613 C.3     1  UNL1        0.0765
     12 F          69.2091   94.0799   16.3877 F       1  UNL1       -0.2357
     13 C          68.2836   93.1943   15.6071 C.3     1  UNL1        0.1782
     14 C          68.6205   92.4656   14.3401 C.3     1  UNL1        0.0540
     15 C          67.4037   91.7029   13.9065 C.3     1  UNL1        0.0750
     16 N          66.3149   91.9603   14.9055 N.3     1  UNL1       -0.2700
     17 C          66.8586   92.8821   15.9567 C.3     1  UNL1        0.1078
     18 C          64.3996   86.6821   14.5576 C.3     1  UNL1        0.0730
     19 C          63.8966   85.2718   14.4657 C.ar    1  UNL1        0.0825
     20 C          64.7071   84.2315   13.7510 C.ar    1  UNL1        0.1139
     21 N          64.2041   82.8214   13.6590 N.ar    1  UNL1       -0.2394
     22 C          62.8906   82.4515   14.2819 C.ar    1  UNL1        0.1195
     23 C          62.0801   83.4918   14.9966 C.ar    1  UNL1        0.1191
     24 N          62.5830   84.9020   15.0886 N.ar    1  UNL1       -0.2446
@<TRIPOS>BOND
     1    12    13    1
     2    13    14    1
     3    14    15    1
     4    15    16    1
     5    16    11    1
     6    11    10    1
     7    10     1    1
     8     1     2    2
     9     2    18    1
    10    18    19    1
    11    19    20   ar
    12    20    21   ar
    13    21    22   ar
    14    22    23   ar
    15    23    24   ar
    16     2     3    1
    17     3     4   ar
    18     4     5   ar
    19     5     6   ar
    20     6     7   ar
    21     7     8   ar
    22     8     9    1
    23    16    17    1
    24    17    13    1
    25     9     1    1
    26    24    19   ar
    27     8     3   ar
@<TRIPOS>MOLECULE
*****
 24 27 0 0 0
SMALL
GASTEIGER

@<TRIPOS>ATOM
      1 C          62.7341   90.4558   12.1179 C.2     1  UNL1       -0.0420
      2 C          63.6049   90.8714   13.2662 C.2     1  UNL1       -0.0240
      3 C          64.7287   91.7009   12.7193 C.ar    1  UNL1       -0.0078
      4 C          65.8897   92.3804   13.3828 C.ar    1  UNL1       -0.0006
      5 C          66.8744   93.1569   12.5598 C.ar    1  UNL1       -0.0000
      6 C          66.6981   93.2540   11.0734 C.ar    1  UNL1       -0.0003
      7 C          65.5370   92.5745   10.4099 C.ar    1  UNL1       -0.0040
      8 C          64.5523   91.7980   11.2329 C.ar    1  UNL1       -0.0184
      9 C          63.3196   91.0284   10.8612 C.3     1  UNL1        0.0480
     10 C          61.4952   89.6151   12.2100 C.3     1  UNL1        0.0394
     11 C          60.6410   89.4025   10.9954 C.3     1  UNL1        0.0765
     12 F          59.8867   85.5258    7.4907 F       1  UNL1       -0.2357
     13 C          60.5258   86.4284    8.5040 C.3     1  UNL1        0.1782
     14 C          61.9317   86.3231    9.0163 C.3     1  UNL1        0.0540
     15 C          62.1460   87.4244   10.0119 C.3     1  UNL1        0.0750
     16 N          60.8725   88.2104   10.1150 N.3     1  UNL1       -0.2700
     17 C          59.8711   87.5948    9.1831 C.3     1  UNL1        0.1078
     18 C          63.3898   90.5193   14.7084 C.3     1  UNL1        0.0730
     19 C          63.5235   89.0953   15.1608 C.ar    1  UNL1        0.0825
     20 C          64.2356   88.0975   14.2965 C.ar    1  UNL1        0.1139
     21 N          64.3692   86.6736   14.7488 N.ar    1  UNL1       -0.2394
     22 C          63.7907   86.2476   16.0655 C.ar    1  UNL1        0.1195
     23 C          63.0786   87.2455   16.9299 C.ar    1  UNL1        0.1191
     24 N          62.9450   88.6693   16.4776 N.ar    1  UNL1       -0.2446
@<TRIPOS>BOND
     1    12    13    1
     2    13    14    1
     3    14    15    1
     4    15    16    1
     5    16    11    1
     6    11    10    1
     7    10     1    1
     8     1     2    2
     9     2    18    1
    10    18    19    1
    11    19    20   ar
    12    20    21   ar
    13    21    22   ar
    14    22    23   ar
    15    23    24   ar
    16     2     3    1
    17     3     4   ar
    18     4     5   ar
    19     5     6   ar
    20     6     7   ar
    21     7     8   ar
    22     8     9    1
    23    16    17    1
    24    17    13    1
    25     9     1    1
    26    24    19   ar
    27     8     3   ar
@<TRIPOS>MOLECULE
*****
 24 27 0 0 0
SMALL
GASTEIGER

@<TRIPOS>ATOM
      1 C          62.7779   85.6776   11.8920 C.2     1  UNL1       -0.0420
      2 C          63.5789   85.1967   13.0654 C.2     1  UNL1       -0.0240
      3 C          63.4886   83.6999   13.1062 C.ar    1  UNL1       -0.0078
      4 C          64.0758   82.6841   14.0406 C.ar    1  UNL1       -0.0006
      5 C          63.8062   81.2241   13.8267 C.ar    1  UNL1       -0.0000
      6 C          62.9493   80.7801   12.6784 C.ar    1  UNL1       -0.0003
      7 C          62.3621   81.7959   11.7440 C.ar    1  UNL1       -0.0040
      8 C          62.6317   83.2559   11.9579 C.ar    1  UNL1       -0.0184
      9 C          62.1925   84.4781   11.2075 C.3     1  UNL1        0.0480
     10 C          62.5945   87.1071   11.4760 C.3     1  UNL1        0.0394
     11 C          61.2154   87.6502   11.2457 C.3     1  UNL1        0.0765
     12 F          59.0049   89.1585    6.6939 F       1  UNL1       -0.2357
     13 C          59.6002   88.3107    7.7787 C.3     1  UNL1        0.1782
     14 C          59.7884   86.8233    7.7322 C.3     1  UNL1        0.0540
     15 C          60.4163   86.3948    9.0253 C.3     1  UNL1        0.0750
     16 N          60.6163   87.6174    9.8710 N.3     1  UNL1       -0.2700
     17 C          60.1119   88.8016    9.1006 C.3     1  UNL1        0.1078
     18 C          64.3372   86.0607   14.0290 C.3     1  UNL1        0.0730
     19 C          63.7201   86.4391   15.3429 C.ar    1  UNL1        0.0825
     20 C          63.1512   85.3780   16.2375 C.ar    1  UNL1        0.1139
     21 N          62.5342   85.7562   17.5514 N.ar    1  UNL1       -0.2394
     22 C          62.4861   87.1957   17.9705 C.ar    1  UNL1        0.1195
     23 C          63.0550   88.2568   17.0759 C.ar    1  UNL1        0.1191
     24 N          63.6720   87.8785   15.7621 N.ar    1  UNL1       -0.2446
@<TRIPOS>BOND
     1    12    13    1
     2    13    14    1
     3    14    15    1
     4    15    16    1
     5    16    11    1
     6    11    10    1
     7    10     1    1
     8     1     2    2
     9     2    18    1
    10    18    19    1
    11    19    20   ar
    12    20    21   ar
    13    21    22   ar
    14    22    23   ar
    15    23    24   ar
    16     2     3    1
    17     3     4   ar
    18     4     5   ar
    19     5     6   ar
    20     6     7   ar
    21     7     8   ar
    22     8     9    1
    23    16    17    1
    24    17    13    1
    25     9     1    1
    26    24    19   ar
    27     8     3   ar
@<TRIPOS>MOLECULE
*****
 24 27 0 0 0
SMALL
GASTEIGER

@<TRIPOS>ATOM
      1 C          63.7577   90.7600   13.2202 C.2     1  UNL1       -0.0420
      2 C          64.0614   90.7698   14.6891 C.2     1  UNL1       -0.0240
      3 C          65.2434   91.6659   14.9122 C.ar    1  UNL1       -0.0078
      4 C          65.9862   92.0568   16.1553 C.ar    1  UNL1       -0.0006
      5 C          67.1558   92.9917   16.0674 C.ar    1  UNL1       -0.0000
      6 C          67.5828   93.5357   14.7363 C.ar    1  UNL1       -0.0003
      7 C          66.8400   93.1448   13.4932 C.ar    1  UNL1       -0.0040
      8 C          65.6704   92.2099   13.5811 C.ar    1  UNL1       -0.0184
      9 C          64.7521   91.6500   12.5354 C.3     1  UNL1        0.0480
     10 C          62.6536   89.9945   12.5532 C.3     1  UNL1        0.0394
     11 C          62.2150   90.3650   11.1674 C.3     1  UNL1        0.0765
     12 F          61.0982   85.8382    8.6891 F       1  UNL1       -0.2357
     13 C          61.0363   87.2630    9.1540 C.3     1  UNL1        0.1782
     14 C          60.0151   88.2814    8.7416 C.3     1  UNL1        0.0540
     15 C          60.3324   89.5673    9.4456 C.3     1  UNL1        0.0750
     16 N          61.5496   89.3437   10.2932 N.3     1  UNL1       -0.2700
     17 C          61.9847   87.9195   10.1129 C.3     1  UNL1        0.1078
     18 C          63.3141   90.0159   15.7489 C.3     1  UNL1        0.0730
     19 C          63.4915   88.5321   15.8800 C.ar    1  UNL1        0.0825
     20 C          62.9278   87.8115   17.0687 C.ar    1  UNL1        0.1139
     21 N          63.1051   86.3278   17.1998 N.ar    1  UNL1       -0.2394
     22 C          63.8462   85.5648   16.1423 C.ar    1  UNL1        0.1195
     23 C          64.4100   86.2854   14.9536 C.ar    1  UNL1        0.1191
     24 N          64.2326   87.7690   14.8224 N.ar    1  UNL1       -0.2446
@<TRIPOS>BOND
     1    12    13    1
     2    13    14    1
     3    14    15    1
     4    15    16    1
     5    16    11    1
     6    11    10    1
     7    10     1    1
     8     1     2    2
     9     2    18    1
    10    18    19    1
    11    19    20   ar
    12    20    21   ar
    13    21    22   ar
    14    22    23   ar
    15    23    24   ar
    16     2     3    1
    17     3     4   ar
    18     4     5   ar
    19     5     6   ar
    20     6     7   ar
    21     7     8   ar
    22     8     9    1
    23    16    17    1
    24    17    13    1
    25     9     1    1
    26    24    19   ar
    27     8     3   ar
