@<TRIPOS>MOLECULE
*****
 21 23 0 0 0
SMALL
GASTEIGER

@<TRIPOS>ATOM
      1 C          64.1123   89.1631   13.9450 C.ar    1  UNL1        0.0122
      2 C          64.3243   87.7783   14.4810 C.ar    1  UNL1        0.0009
      3 C          63.8019   86.5932   13.7244 C.ar    1  UNL1        0.0001
      4 C          63.0674   86.7928   12.4317 C.ar    1  UNL1        0.0010
      5 C          62.5450   85.6077   11.6751 C.ar    1  UNL1        0.0031
      6 C          61.8106   85.8074   10.3826 C.ar    1  UNL1        0.0369
      7 C          61.5987   87.1923    9.8466 C.ar    1  UNL1        0.1388
      8 C          62.1211   88.3774   10.6032 C.ar    1  UNL1        0.0377
      9 C          62.8555   88.1777   11.8958 C.ar    1  UNL1        0.0136
     10 C          63.3779   89.3629   12.6525 C.ar    1  UNL1        0.0578
     11 CL         63.1659   90.7477   12.1165 Cl      1  UNL1       -0.0822
     12 C          66.4644   92.1562   15.0671 C.ar    1  UNL1        0.1578
     13 C          65.6795   92.7185   16.2150 C.ar    1  UNL1        0.1356
     14 N          64.3723   92.0957   16.6063 N.ar    1  UNL1       -0.2391
     15 C          63.8499   90.9106   15.8497 C.ar    1  UNL1        0.0991
     16 C          64.6347   90.3483   14.7017 C.ar    1  UNL1        0.0230
     17 C          65.9420   90.9711   14.3104 C.ar    1  UNL1        0.0401
     18 C          68.6842   93.3323   15.7299 C.3     1  UNL1        0.2525
     19 O          67.7717   92.7791   14.6758 O.3     1  UNL1       -0.4699
     20 O          60.8642   87.3920    8.5540 O.3     1  UNL1       -0.4714
     21 C          59.6756   86.5375    8.2270 C.3     1  UNL1        0.2525
@<TRIPOS>BOND
     1    18    19    1
     2    19    12    1
     3    12    13   ar
     4    13    14   ar
     5    14    15   ar
     6    15    16   ar
     7    16     1    1
     8     1     2   ar
     9     2     3   ar
    10     3     4   ar
    11     4     5   ar
    12     5     6   ar
    13     6     7   ar
    14     7    20    1
    15    20    21    1
    16     7     8   ar
    17     8     9   ar
    18     9    10   ar
    19    10    11    1
    20    16    17   ar
    21    17    12   ar
    22    10     1   ar
    23     9     4   ar
@<TRIPOS>MOLECULE
*****
 21 23 0 0 0
SMALL
GASTEIGER

@<TRIPOS>ATOM
      1 C          63.0499   89.6604   11.8926 C.ar    1  UNL1        0.0122
      2 C          63.5180   89.1758   13.2328 C.ar    1  UNL1        0.0009
      3 C          64.5463   89.9572   13.9956 C.ar    1  UNL1        0.0001
      4 C          65.1067   91.2232   13.4182 C.ar    1  UNL1        0.0010
      5 C          66.1350   92.0046   14.1810 C.ar    1  UNL1        0.0031
      6 C          66.6953   93.2705   13.6036 C.ar    1  UNL1        0.0369
      7 C          66.2272   93.7551   12.2635 C.ar    1  UNL1        0.1388
      8 C          65.1989   92.9738   11.5007 C.ar    1  UNL1        0.0377
      9 C          64.6386   91.7078   12.0780 C.ar    1  UNL1        0.0136
     10 C          63.6102   90.9264   11.3152 C.ar    1  UNL1        0.0578
     11 CL         63.1421   91.4110    9.9750 Cl      1  UNL1       -0.0822
     12 C          61.4246   87.0705    9.3627 C.ar    1  UNL1        0.1578
     13 C          59.9647   87.3163    9.6043 C.ar    1  UNL1        0.1356
     14 N          59.5332   88.3434   10.6086 N.ar    1  UNL1       -0.2391
     15 C          60.5616   89.1248   11.3714 C.ar    1  UNL1        0.0991
     16 C          62.0215   88.8790   11.1298 C.ar    1  UNL1        0.0230
     17 C          62.4530   87.8518   10.1255 C.ar    1  UNL1        0.0401
     18 C          63.1444   85.2999    8.5519 C.3     1  UNL1        0.2525
     19 O          61.8560   86.0432    8.3583 O.3     1  UNL1       -0.4699
     20 O          66.7876   95.0212   11.6861 O.3     1  UNL1       -0.4714
     21 C          66.6374   95.3083   10.2215 C.3     1  UNL1        0.2525
@<TRIPOS>BOND
     1    18    19    1
     2    19    12    1
     3    12    13   ar
     4    13    14   ar
     5    14    15   ar
     6    15    16   ar
     7    16     1    1
     8     1     2   ar
     9     2     3   ar
    10     3     4   ar
    11     4     5   ar
    12     5     6   ar
    13     6     7   ar
    14     7    20    1
    15    20    21    1
    16     7     8   ar
    17     8     9   ar
    18     9    10   ar
    19    10    11    1
    20    16    17   ar
    21    17    12   ar
    22    10     1   ar
    23     9     4   ar
@<TRIPOS>MOLECULE
*****
 21 23 0 0 0
SMALL
GASTEIGER

@<TRIPOS>ATOM
      1 C          63.8697   89.9523   13.1828 C.ar    1  UNL1        0.0122
      2 C          63.2261   90.5408   11.9624 C.ar    1  UNL1        0.0009
      3 C          62.5541   89.6460   10.9636 C.ar    1  UNL1        0.0001
      4 C          62.5257   88.1627   11.1851 C.ar    1  UNL1        0.0010
      5 C          61.8538   87.2679   10.1862 C.ar    1  UNL1        0.0031
      6 C          61.8255   85.7847   10.4078 C.ar    1  UNL1        0.0369
      7 C          62.4691   85.1962   11.6282 C.ar    1  UNL1        0.1388
      8 C          63.1411   86.0910   12.6271 C.ar    1  UNL1        0.0377
      9 C          63.1694   87.5742   12.4055 C.ar    1  UNL1        0.0136
     10 C          63.8414   88.4691   13.4044 C.ar    1  UNL1        0.0578
     11 CL         64.4851   87.8806   14.6248 Cl      1  UNL1       -0.0822
     12 C          66.5498   92.3468   14.8662 C.ar    1  UNL1        0.1578
     13 C          65.8856   92.6369   16.1794 C.ar    1  UNL1        0.1356
     14 N          64.5495   92.0321   16.4938 N.ar    1  UNL1       -0.2391
     15 C          63.8775   91.1373   15.4950 C.ar    1  UNL1        0.0991
     16 C          64.5418   90.8472   14.1817 C.ar    1  UNL1        0.0230
     17 C          65.8779   91.4520   13.8673 C.ar    1  UNL1        0.0401
     18 C          68.7752   93.4251   15.6632 C.3     1  UNL1        0.2525
     19 O          67.8861   92.9516   14.5518 O.3     1  UNL1       -0.4699
     20 O          62.4408   83.7129   11.8497 O.3     1  UNL1       -0.4714
     21 C          62.7657   83.1501   13.2016 C.3     1  UNL1        0.2525
@<TRIPOS>BOND
     1    18    19    1
     2    19    12    1
     3    12    13   ar
     4    13    14   ar
     5    14    15   ar
     6    15    16   ar
     7    16     1    1
     8     1     2   ar
     9     2     3   ar
    10     3     4   ar
    11     4     5   ar
    12     5     6   ar
    13     6     7   ar
    14     7    20    1
    15    20    21    1
    16     7     8   ar
    17     8     9   ar
    18     9    10   ar
    19    10    11    1
    20    16    17   ar
    21    17    12   ar
    22    10     1   ar
    23     9     4   ar
@<TRIPOS>MOLECULE
*****
 21 23 0 0 0
SMALL
GASTEIGER

@<TRIPOS>ATOM
      1 C          62.8696   85.4450   11.8472 C.ar    1  UNL1        0.0122
      2 C          62.1418   85.7058   10.5618 C.ar    1  UNL1        0.0009
      3 C          61.9148   87.1151   10.1011 C.ar    1  UNL1        0.0001
      4 C          62.4157   88.2636   10.9258 C.ar    1  UNL1        0.0010
      5 C          62.1887   89.6729   10.4650 C.ar    1  UNL1        0.0031
      6 C          62.6896   90.8214   11.2897 C.ar    1  UNL1        0.0369
      7 C          63.4174   90.5606   12.5750 C.ar    1  UNL1        0.1388
      8 C          63.6444   89.1513   13.0358 C.ar    1  UNL1        0.0377
      9 C          63.1436   88.0028   12.2111 C.ar    1  UNL1        0.0136
     10 C          63.3705   86.5934   12.6719 C.ar    1  UNL1        0.0578
     11 CL         64.0984   86.3326   13.9572 Cl      1  UNL1       -0.0822
     12 C          62.3587   81.9838   13.7205 C.ar    1  UNL1        0.1578
     13 C          63.5506   81.2170   13.2293 C.ar    1  UNL1        0.1356
     14 N          64.5156   81.8594   12.2774 N.ar    1  UNL1       -0.2391
     15 C          64.2886   83.2687   11.8168 C.ar    1  UNL1        0.0991
     16 C          63.0966   84.0356   12.3080 C.ar    1  UNL1        0.0230
     17 C          62.1317   83.3931   13.2598 C.ar    1  UNL1        0.0401
     18 C          60.2565   80.5173   14.1453 C.3     1  UNL1        0.2525
     19 O          61.3937   81.3412   14.6724 O.3     1  UNL1       -0.4699
     20 O          63.9183   91.7092   13.3997 O.3     1  UNL1       -0.4714
     21 C          65.3401   91.7257   13.8774 C.3     1  UNL1        0.2525
@<TRIPOS>BOND
     1    18    19    1
     2    19    12    1
     3    12    13   ar
     4    13    14   ar
     5    14    15   ar
     6    15    16   ar
     7    16     1    1
     8     1     2   ar
     9     2     3   ar
    10     3     4   ar
    11     4     5   ar
    12     5     6   ar
    13     6     7   ar
    14     7    20    1
    15    20    21    1
    16     7     8   ar
    17     8     9   ar
    18     9    10   ar
    19    10    11    1
    20    16    17   ar
    21    17    12   ar
    22    10     1   ar
    23     9     4   ar
@<TRIPOS>MOLECULE
*****
 21 23 0 0 0
SMALL
GASTEIGER

@<TRIPOS>ATOM
      1 C          63.5081   84.8633   13.4410 C.ar    1  UNL1        0.0122
      2 C          64.3164   85.2805   14.6337 C.ar    1  UNL1        0.0009
      3 C          64.5921   86.7339   14.8818 C.ar    1  UNL1        0.0001
      4 C          64.0594   87.7702   13.9371 C.ar    1  UNL1        0.0010
      5 C          64.3350   89.2236   14.1851 C.ar    1  UNL1        0.0031
      6 C          63.8024   90.2599   13.2404 C.ar    1  UNL1        0.0369
      7 C          62.9940   89.8427   12.0477 C.ar    1  UNL1        0.1388
      8 C          62.7184   88.3893   11.7997 C.ar    1  UNL1        0.0377
      9 C          63.2511   87.3531   12.7443 C.ar    1  UNL1        0.0136
     10 C          62.9754   85.8996   12.4963 C.ar    1  UNL1        0.0578
     11 CL         62.1671   85.4824   11.3036 Cl      1  UNL1       -0.0822
     12 C          63.0582   81.4002   11.5556 C.ar    1  UNL1        0.1578
     13 C          62.6812   80.5030   12.6970 C.ar    1  UNL1        0.1356
     14 N          62.5797   81.0592   14.0864 N.ar    1  UNL1       -0.2391
     15 C          62.8554   82.5126   14.3343 C.ar    1  UNL1        0.0991
     16 C          63.2324   83.4098   13.1930 C.ar    1  UNL1        0.0230
     17 C          63.3339   82.8537   11.8036 C.ar    1  UNL1        0.0401
     18 C          62.8582   79.3965    9.9140 C.3     1  UNL1        0.2525
     19 O          63.1597   80.8440   10.1662 O.3     1  UNL1       -0.4699
     20 O          62.4614   90.8790   11.1030 O.3     1  UNL1       -0.4714
     21 C          63.3784   91.5329   10.1124 C.3     1  UNL1        0.2525
@<TRIPOS>BOND
     1    18    19    1
     2    19    12    1
     3    12    13   ar
     4    13    14   ar
     5    14    15   ar
     6    15    16   ar
     7    16     1    1
     8     1     2   ar
     9     2     3   ar
    10     3     4   ar
    11     4     5   ar
    12     5     6   ar
    13     6     7   ar
    14     7    20    1
    15    20    21    1
    16     7     8   ar
    17     8     9   ar
    18     9    10   ar
    19    10    11    1
    20    16    17   ar
    21    17    12   ar
    22    10     1   ar
    23     9     4   ar
@<TRIPOS>MOLECULE
*****
 21 23 0 0 0
SMALL
GASTEIGER

@<TRIPOS>ATOM
      1 C          63.5604   85.0665   13.5010 C.ar    1  UNL1        0.0122
      2 C          64.3563   85.3798   14.7332 C.ar    1  UNL1        0.0009
      3 C          64.6879   86.8033   15.0701 C.ar    1  UNL1        0.0001
      4 C          64.2236   87.9137   14.1748 C.ar    1  UNL1        0.0010
      5 C          64.5552   89.3372   14.5117 C.ar    1  UNL1        0.0031
      6 C          64.0908   90.4475   13.6164 C.ar    1  UNL1        0.0369
      7 C          63.2949   90.1343   12.3842 C.ar    1  UNL1        0.1388
      8 C          62.9633   88.7107   12.0472 C.ar    1  UNL1        0.0377
      9 C          63.4277   87.6005   12.9426 C.ar    1  UNL1        0.0136
     10 C          63.0961   86.1768   12.6057 C.ar    1  UNL1        0.0578
     11 CL         62.3002   85.8636   11.3734 Cl      1  UNL1       -0.0822
     12 C          61.9606   81.4402   13.7021 C.ar    1  UNL1        0.1578
     13 C          62.5657   80.7958   12.4902 C.ar    1  UNL1        0.1356
     14 N          63.5024   81.5750   11.6153 N.ar    1  UNL1       -0.2391
     15 C          63.8339   82.9985   11.9522 C.ar    1  UNL1        0.0991
     16 C          63.2288   83.6429   13.1641 C.ar    1  UNL1        0.0230
     17 C          62.2922   82.8638   14.0390 C.ar    1  UNL1        0.0401
     18 C          59.6160   80.4049   14.1275 C.3     1  UNL1        0.2525
     19 O          61.0239   80.6610   14.5770 O.3     1  UNL1       -0.4699
     20 O          62.8306   91.2446   11.4888 O.3     1  UNL1       -0.4714
     21 C          62.9026   91.0866    9.9990 C.3     1  UNL1        0.2525
@<TRIPOS>BOND
     1    18    19    1
     2    19    12    1
     3    12    13   ar
     4    13    14   ar
     5    14    15   ar
     6    15    16   ar
     7    16     1    1
     8     1     2   ar
     9     2     3   ar
    10     3     4   ar
    11     4     5   ar
    12     5     6   ar
    13     6     7   ar
    14     7    20    1
    15    20    21    1
    16     7     8   ar
    17     8     9   ar
    18     9    10   ar
    19    10    11    1
    20    16    17   ar
    21    17    12   ar
    22    10     1   ar
    23     9     4   ar
@<TRIPOS>MOLECULE
*****
 21 23 0 0 0
SMALL
GASTEIGER

@<TRIPOS>ATOM
      1 C          62.6545   88.5422   11.5825 C.ar    1  UNL1        0.0122
      2 C          62.6317   87.0431   11.6273 C.ar    1  UNL1        0.0009
      3 C          61.8031   86.2758   10.6401 C.ar    1  UNL1        0.0001
      4 C          60.9973   87.0076    9.6080 C.ar    1  UNL1        0.0010
      5 C          60.1688   86.2403    8.6208 C.ar    1  UNL1        0.0031
      6 C          59.3630   86.9721    7.5887 C.ar    1  UNL1        0.0369
      7 C          59.3859   88.4713    7.5439 C.ar    1  UNL1        0.1388
      8 C          60.2144   89.2386    8.5311 C.ar    1  UNL1        0.0377
      9 C          61.0201   88.5067    9.5632 C.ar    1  UNL1        0.0136
     10 C          61.8488   89.2741   10.5505 C.ar    1  UNL1        0.0578
     11 CL         61.8716   90.7732   10.5057 Cl      1  UNL1       -0.0822
     12 C          64.7601   91.4717   13.2361 C.ar    1  UNL1        0.1578
     13 C          65.1403   90.8440   14.5444 C.ar    1  UNL1        0.1356
     14 N          64.6918   89.4491   14.8653 N.ar    1  UNL1       -0.2391
     15 C          63.8633   88.6819   13.8781 C.ar    1  UNL1        0.0991
     16 C          63.4831   89.3095   12.5698 C.ar    1  UNL1        0.0230
     17 C          63.9316   90.7045   12.2489 C.ar    1  UNL1        0.0401
     18 C          66.4449   93.4233   13.5568 C.3     1  UNL1        0.2525
     19 O          65.2086   92.8667   12.9152 O.3     1  UNL1       -0.4699
     20 O          58.5801   89.2031    6.5118 O.3     1  UNL1       -0.4714
     21 C          59.1984   90.3291    5.7374 C.3     1  UNL1        0.2525
@<TRIPOS>BOND
     1    18    19    1
     2    19    12    1
     3    12    13   ar
     4    13    14   ar
     5    14    15   ar
     6    15    16   ar
     7    16     1    1
     8     1     2   ar
     9     2     3   ar
    10     3     4   ar
    11     4     5   ar
    12     5     6   ar
    13     6     7   ar
    14     7    20    1
    15    20    21    1
    16     7     8   ar
    17     8     9   ar
    18     9    10   ar
    19    10    11    1
    20    16    17   ar
    21    17    12   ar
    22    10     1   ar
    23     9     4   ar
@<TRIPOS>MOLECULE
*****
 21 23 0 0 0
SMALL
GASTEIGER

@<TRIPOS>ATOM
      1 C          62.8748   85.4612   12.2718 C.ar    1  UNL1        0.0122
      2 C          62.1799   86.1279   11.1218 C.ar    1  UNL1        0.0009
      3 C          62.2009   87.6226   10.9973 C.ar    1  UNL1        0.0001
      4 C          62.9168   88.4506   12.0230 C.ar    1  UNL1        0.0010
      5 C          62.9378   89.9452   11.8986 C.ar    1  UNL1        0.0031
      6 C          63.6537   90.7732   12.9242 C.ar    1  UNL1        0.0369
      7 C          64.3486   90.1065   14.0743 C.ar    1  UNL1        0.1388
      8 C          64.3276   88.6118   14.1987 C.ar    1  UNL1        0.0377
      9 C          63.6117   87.7839   13.1731 C.ar    1  UNL1        0.0136
     10 C          63.5907   86.2891   13.2974 C.ar    1  UNL1        0.0578
     11 CL         64.2856   85.6224   14.4475 Cl      1  UNL1       -0.0822
     12 C          63.1663   81.6158   11.3350 C.ar    1  UNL1        0.1578
     13 C          62.8117   80.9772   12.6451 C.ar    1  UNL1        0.1356
     14 N          62.4780   81.8332   13.8307 N.ar    1  UNL1       -0.2391
     15 C          62.4990   83.3278   13.7063 C.ar    1  UNL1        0.0991
     16 C          62.8537   83.9665   12.3962 C.ar    1  UNL1        0.0230
     17 C          63.1874   83.1104   11.2105 C.ar    1  UNL1        0.0401
     18 C          62.7538   79.4799    9.9145 C.3     1  UNL1        0.2525
     19 O          63.5000   80.7597   10.1492 O.3     1  UNL1       -0.4699
     20 O          65.0645   90.9345   15.0999 O.3     1  UNL1       -0.4714
     21 C          66.2455   91.7680   14.6995 C.3     1  UNL1        0.2525
@<TRIPOS>BOND
     1    18    19    1
     2    19    12    1
     3    12    13   ar
     4    13    14   ar
     5    14    15   ar
     6    15    16   ar
     7    16     1    1
     8     1     2   ar
     9     2     3   ar
    10     3     4   ar
    11     4     5   ar
    12     5     6   ar
    13     6     7   ar
    14     7    20    1
    15    20    21    1
    16     7     8   ar
    17     8     9   ar
    18     9    10   ar
    19    10    11    1
    20    16    17   ar
    21    17    12   ar
    22    10     1   ar
    23     9     4   ar
@<TRIPOS>MOLECULE
*****
 21 23 0 0 0
SMALL
GASTEIGER

@<TRIPOS>ATOM
      1 C          61.9702   85.8077    9.4851 C.ar    1  UNL1        0.0122
      2 C          62.8538   85.0355    8.5508 C.ar    1  UNL1        0.0009
      3 C          63.7313   83.9408    9.0814 C.ar    1  UNL1        0.0001
      4 C          63.7254   83.6184   10.5463 C.ar    1  UNL1        0.0010
      5 C          64.6029   82.5237   11.0769 C.ar    1  UNL1        0.0031
      6 C          64.5969   82.2014   12.5418 C.ar    1  UNL1        0.0369
      7 C          63.7134   82.9737   13.4761 C.ar    1  UNL1        0.1388
      8 C          62.8358   84.0683   12.9455 C.ar    1  UNL1        0.0377
      9 C          62.8418   84.3907   11.4806 C.ar    1  UNL1        0.0136
     10 C          61.9642   85.4854   10.9500 C.ar    1  UNL1        0.0578
     11 CL         61.0807   86.2577   11.8843 Cl      1  UNL1       -0.0822
     12 C          60.1516   89.3175    9.1324 C.ar    1  UNL1        0.1578
     13 C          59.3375   89.0917    7.8930 C.ar    1  UNL1        0.1356
     14 N          59.4010   87.7712    7.1842 N.ar    1  UNL1       -0.2391
     15 C          60.2785   86.6766    7.7149 C.ar    1  UNL1        0.0991
     16 C          61.0926   86.9025    8.9544 C.ar    1  UNL1        0.0230
     17 C          61.0292   88.2229    9.6631 C.ar    1  UNL1        0.0401
     18 C          59.5875   90.7079   11.2534 C.3     1  UNL1        0.2525
     19 O          60.0882   90.6380    9.8412 O.3     1  UNL1       -0.4699
     20 O          63.7074   82.6512   14.9411 O.3     1  UNL1       -0.4714
     21 C          63.3073   83.6983   15.9379 C.3     1  UNL1        0.2525
@<TRIPOS>BOND
     1    18    19    1
     2    19    12    1
     3    12    13   ar
     4    13    14   ar
     5    14    15   ar
     6    15    16   ar
     7    16     1    1
     8     1     2   ar
     9     2     3   ar
    10     3     4   ar
    11     4     5   ar
    12     5     6   ar
    13     6     7   ar
    14     7    20    1
    15    20    21    1
    16     7     8   ar
    17     8     9   ar
    18     9    10   ar
    19    10    11    1
    20    16    17   ar
    21    17    12   ar
    22    10     1   ar
    23     9     4   ar
