@<TRIPOS>MOLECULE
*****
 23 26 0 0 0
SMALL
GASTEIGER

@<TRIPOS>ATOM
      1 O          66.6873   93.7821   14.0491 O.2     1  UNL1       -0.2699
      2 C          66.0814   93.4924   12.7078 C.2     1  UNL1        0.2494
      3 N          65.1270   92.3463   12.5477 N.am    1  UNL1       -0.2684
      4 C          64.7784   91.4900   13.7289 C.3     1  UNL1        0.1204
      5 C          63.8240   90.3440   13.5688 C.3     1  UNL1        0.1486
      6 N          63.2182   90.0542   12.2275 N.ar    1  UNL1       -0.2515
      7 N          62.2537   89.0012   11.7681 N.ar    1  UNL1       -0.1680
      8 C          62.0062   89.2067   10.3031 C.ar    1  UNL1        0.1197
      9 C          62.8177   90.3868    9.8570 C.ar    1  UNL1        0.0384
     10 C          63.5667   90.9106   11.0463 C.ar    1  UNL1        0.0773
     11 C          64.5211   92.0566   11.2065 C.3     1  UNL1        0.1393
     12 C          66.4300   94.3488   11.5267 C.ar    1  UNL1        0.0536
     13 C          67.1688   93.7569   10.3631 C.ar    1  UNL1        0.0045
     14 C          67.5174   94.6133    9.1819 C.ar    1  UNL1        0.0001
     15 C          67.1270   96.0615    9.1643 C.ar    1  UNL1        0.0000
     16 C          66.3882   96.6533   10.3278 C.ar    1  UNL1        0.0001
     17 C          66.0396   95.7970   11.5090 C.ar    1  UNL1        0.0045
     18 C          61.1054   88.3778    9.4362 C.ar    1  UNL1        0.1006
     19 C          61.2983   86.8923    9.3585 C.ar    1  UNL1        0.0207
     20 C          60.3975   86.0633    8.4917 C.ar    1  UNL1        0.0032
     21 C          59.3038   86.7199    7.7026 C.ar    1  UNL1        0.0207
     22 C          59.1109   88.2054    7.7803 C.ar    1  UNL1        0.0989
     23 N          60.0117   89.0344    8.6471 N.ar    1  UNL1       -0.2423
@<TRIPOS>BOND
     1     1     2    2
     2     2    12    1
     3    12    13   ar
     4    13    14   ar
     5    14    15   ar
     6    15    16   ar
     7    16    17   ar
     8     2     3   am
     9     3     4    1
    10     4     5    1
    11     5     6    1
    12     6     7   ar
    13     7     8   ar
    14     8    18    1
    15    18    19   ar
    16    19    20   ar
    17    20    21   ar
    18    21    22   ar
    19    22    23   ar
    20     8     9   ar
    21     9    10   ar
    22    10    11    1
    23    17    12   ar
    24    11     3    1
    25    10     6   ar
    26    23    18   ar
@<TRIPOS>MOLECULE
*****
 23 26 0 0 0
SMALL
GASTEIGER

@<TRIPOS>ATOM
      1 O          64.0084   92.0520   16.5772 O.2     1  UNL1       -0.2699
      2 C          64.3140   91.0428   15.5104 C.2     1  UNL1        0.2494
      3 N          63.8971   89.6129   15.6891 N.am    1  UNL1       -0.2684
      4 C          63.1748   89.1924   16.9346 C.3     1  UNL1        0.1204
      5 C          62.7580   87.7626   17.1133 C.3     1  UNL1        0.1486
      6 N          63.0635   86.7534   16.0465 N.ar    1  UNL1       -0.2515
      7 N          62.7792   85.2841   15.9437 N.ar    1  UNL1       -0.1680
      8 C          63.3258   84.7967   14.6347 C.ar    1  UNL1        0.1197
      9 C          63.9479   85.9646   13.9285 C.ar    1  UNL1        0.0384
     10 C          63.7858   87.1739   14.8010 C.ar    1  UNL1        0.0773
     11 C          64.2026   88.6037   14.6223 C.3     1  UNL1        0.1393
     12 C          65.0363   91.4633   14.2649 C.ar    1  UNL1        0.0536
     13 C          64.2853   91.6061   12.9743 C.ar    1  UNL1        0.0045
     14 C          65.0077   92.0267   11.7287 C.ar    1  UNL1        0.0001
     15 C          66.4810   92.3044   11.7738 C.ar    1  UNL1        0.0000
     16 C          67.2320   92.1616   13.0644 C.ar    1  UNL1        0.0001
     17 C          66.5097   91.7411   14.3099 C.ar    1  UNL1        0.0045
     18 C          63.2615   83.3884   14.1219 C.ar    1  UNL1        0.1006
     19 C          62.1534   82.4792   14.5639 C.ar    1  UNL1        0.0207
     20 C          62.0891   81.0710   14.0511 C.ar    1  UNL1        0.0032
     21 C          63.1330   80.5722   13.0964 C.ar    1  UNL1        0.0207
     22 C          64.2411   81.4814   12.6545 C.ar    1  UNL1        0.0989
     23 N          64.3054   82.8896   13.1672 N.ar    1  UNL1       -0.2423
@<TRIPOS>BOND
     1     1     2    2
     2     2    12    1
     3    12    13   ar
     4    13    14   ar
     5    14    15   ar
     6    15    16   ar
     7    16    17   ar
     8     2     3   am
     9     3     4    1
    10     4     5    1
    11     5     6    1
    12     6     7   ar
    13     7     8   ar
    14     8    18    1
    15    18    19   ar
    16    19    20   ar
    17    20    21   ar
    18    21    22   ar
    19    22    23   ar
    20     8     9   ar
    21     9    10   ar
    22    10    11    1
    23    17    12   ar
    24    11     3    1
    25    10     6   ar
    26    23    18   ar
@<TRIPOS>MOLECULE
*****
 23 26 0 0 0
SMALL
GASTEIGER

@<TRIPOS>ATOM
      1 O          62.7976   91.6448   10.4164 O.2     1  UNL1       -0.2699
      2 C          63.1931   90.5948   11.4119 C.2     1  UNL1        0.2494
      3 N          62.8186   89.1611   11.1785 N.am    1  UNL1       -0.2684
      4 C          62.0487   88.7775    9.9496 C.3     1  UNL1        0.1204
      5 C          61.6743   87.3439    9.7163 C.3     1  UNL1        0.1486
      6 N          62.0698   86.2938   10.7117 N.ar    1  UNL1       -0.2515
      7 N          61.8434   84.8115   10.7504 N.ar    1  UNL1       -0.1680
      8 C          62.4734   84.2789   12.0032 C.ar    1  UNL1        0.1197
      9 C          63.0891   85.4321   12.7387 C.ar    1  UNL1        0.0384
     10 C          62.8397   86.6774   11.9406 C.ar    1  UNL1        0.0773
     11 C          63.2141   88.1110   12.1740 C.3     1  UNL1        0.1393
     12 C          63.9630   90.9783   12.6408 C.ar    1  UNL1        0.0536
     13 C          63.5307   90.4722   13.9850 C.ar    1  UNL1        0.0045
     14 C          64.3007   90.8558   15.2139 C.ar    1  UNL1        0.0001
     15 C          65.5028   91.7454   15.0985 C.ar    1  UNL1        0.0000
     16 C          65.9351   92.2515   13.7543 C.ar    1  UNL1        0.0001
     17 C          65.1652   91.8680   12.5254 C.ar    1  UNL1        0.0045
     18 C          62.4856   82.8449   12.4432 C.ar    1  UNL1        0.1006
     19 C          62.8562   81.7650   11.4703 C.ar    1  UNL1        0.0207
     20 C          62.8684   80.3311   11.9103 C.ar    1  UNL1        0.0032
     21 C          62.5099   79.9770   13.3231 C.ar    1  UNL1        0.0207
     22 C          62.1393   81.0569   14.2959 C.ar    1  UNL1        0.0989
     23 N          62.1271   82.4909   13.8560 N.ar    1  UNL1       -0.2423
@<TRIPOS>BOND
     1     1     2    2
     2     2    12    1
     3    12    13   ar
     4    13    14   ar
     5    14    15   ar
     6    15    16   ar
     7    16    17   ar
     8     2     3   am
     9     3     4    1
    10     4     5    1
    11     5     6    1
    12     6     7   ar
    13     7     8   ar
    14     8    18    1
    15    18    19   ar
    16    19    20   ar
    17    20    21   ar
    18    21    22   ar
    19    22    23   ar
    20     8     9   ar
    21     9    10   ar
    22    10    11    1
    23    17    12   ar
    24    11     3    1
    25    10     6   ar
    26    23    18   ar
@<TRIPOS>MOLECULE
*****
 23 26 0 0 0
SMALL
GASTEIGER

@<TRIPOS>ATOM
      1 O          62.5320   85.9304   17.9112 O.2     1  UNL1       -0.2699
      2 C          63.1201   86.2724   16.5743 C.2     1  UNL1        0.2494
      3 N          63.4094   87.7024   16.2259 N.am    1  UNL1       -0.2684
      4 C          63.1107   88.7904   17.2143 C.3     1  UNL1        0.1204
      5 C          63.4000   90.2204   16.8658 C.3     1  UNL1        0.1486
      6 N          63.9881   90.5623   15.5289 N.ar    1  UNL1       -0.2515
      7 N          64.3776   91.8716   14.9090 N.ar    1  UNL1       -0.1680
      8 C          64.9171   91.5927   13.5375 C.ar    1  UNL1        0.1197
      9 C          64.8610   90.1111   13.3098 C.ar    1  UNL1        0.0384
     10 C          64.2869   89.4743   14.5406 C.ar    1  UNL1        0.0773
     11 C          63.9975   88.0444   14.8890 C.3     1  UNL1        0.1393
     12 C          63.4189   85.1844   15.5859 C.ar    1  UNL1        0.0536
     13 C          62.3939   84.1266   15.3023 C.ar    1  UNL1        0.0045
     14 C          62.6927   83.0385   14.3138 C.ar    1  UNL1        0.0001
     15 C          64.0165   83.0084   13.6091 C.ar    1  UNL1        0.0000
     16 C          65.0414   84.0662   13.8927 C.ar    1  UNL1        0.0001
     17 C          64.7427   85.1542   14.8811 C.ar    1  UNL1        0.0045
     18 C          65.4237   92.6157   12.5644 C.ar    1  UNL1        0.1006
     19 C          65.4275   92.3156   11.0947 C.ar    1  UNL1        0.0207
     20 C          65.9341   93.3386   10.1217 C.ar    1  UNL1        0.0032
     21 C          66.4369   94.6616   10.6183 C.ar    1  UNL1        0.0207
     22 C          66.4332   94.9617   12.0880 C.ar    1  UNL1        0.0989
     23 N          65.9266   93.9388   13.0610 N.ar    1  UNL1       -0.2423
@<TRIPOS>BOND
     1     1     2    2
     2     2    12    1
     3    12    13   ar
     4    13    14   ar
     5    14    15   ar
     6    15    16   ar
     7    16    17   ar
     8     2     3   am
     9     3     4    1
    10     4     5    1
    11     5     6    1
    12     6     7   ar
    13     7     8   ar
    14     8    18    1
    15    18    19   ar
    16    19    20   ar
    17    20    21   ar
    18    21    22   ar
    19    22    23   ar
    20     8     9   ar
    21     9    10   ar
    22    10    11    1
    23    17    12   ar
    24    11     3    1
    25    10     6   ar
    26    23    18   ar
@<TRIPOS>MOLECULE
*****
 23 26 0 0 0
SMALL
GASTEIGER

@<TRIPOS>ATOM
      1 O          61.2931   86.7380   12.1622 O.2     1  UNL1       -0.2699
      2 C          61.5705   87.8249   11.1664 C.2     1  UNL1        0.2494
      3 N          62.5306   88.9262   11.5062 N.am    1  UNL1       -0.2684
      4 C          63.2133   88.9406   12.8417 C.3     1  UNL1        0.1204
      5 C          64.1733   90.0418   13.1814 C.3     1  UNL1        0.1486
      6 N          64.4507   91.1288   12.1856 N.ar    1  UNL1       -0.2515
      7 N          65.3412   92.3348   12.2381 N.ar    1  UNL1       -0.1680
      8 C          65.2088   93.0657   10.9350 C.ar    1  UNL1        0.1197
      9 C          64.2366   92.3115   10.0772 C.ar    1  UNL1        0.0384
     10 C          63.7680   91.1144   10.8501 C.ar    1  UNL1        0.0773
     11 C          62.8080   90.0132   10.5103 C.3     1  UNL1        0.1393
     12 C          60.8878   87.8106    9.8308 C.ar    1  UNL1        0.0536
     13 C          60.3311   89.0808    9.2594 C.ar    1  UNL1        0.0045
     14 C          59.6484   89.0665    7.9238 C.ar    1  UNL1        0.0001
     15 C          59.5224   87.7819    7.1597 C.ar    1  UNL1        0.0000
     16 C          60.0792   86.5116    7.7311 C.ar    1  UNL1        0.0001
     17 C          60.7618   86.5260    9.0666 C.ar    1  UNL1        0.0045
     18 C          65.9233   94.3291   10.5562 C.ar    1  UNL1        0.1006
     19 C          66.8350   94.3469    9.3652 C.ar    1  UNL1        0.0207
     20 C          67.5494   95.6102    8.9863 C.ar    1  UNL1        0.0032
     21 C          67.3522   96.8558    9.7985 C.ar    1  UNL1        0.0207
     22 C          66.4405   96.8380   10.9895 C.ar    1  UNL1        0.0989
     23 N          65.7261   95.5747   11.3684 N.ar    1  UNL1       -0.2423
@<TRIPOS>BOND
     1     1     2    2
     2     2    12    1
     3    12    13   ar
     4    13    14   ar
     5    14    15   ar
     6    15    16   ar
     7    16    17   ar
     8     2     3   am
     9     3     4    1
    10     4     5    1
    11     5     6    1
    12     6     7   ar
    13     7     8   ar
    14     8    18    1
    15    18    19   ar
    16    19    20   ar
    17    20    21   ar
    18    21    22   ar
    19    22    23   ar
    20     8     9   ar
    21     9    10   ar
    22    10    11    1
    23    17    12   ar
    24    11     3    1
    25    10     6   ar
    26    23    18   ar
@<TRIPOS>MOLECULE
*****
 23 26 0 0 0
SMALL
GASTEIGER

@<TRIPOS>ATOM
      1 O          60.1618   86.3458    9.3134 O.2     1  UNL1       -0.2699
      2 C          61.3654   86.3762   10.2080 C.2     1  UNL1        0.2494
      3 N          61.7802   87.6600   10.8639 N.am    1  UNL1       -0.2684
      4 C          60.9913   88.9132   10.6251 C.3     1  UNL1        0.1204
      5 C          61.4061   90.1968   11.2810 C.3     1  UNL1        0.1486
      6 N          62.6097   90.2272   12.1756 N.ar    1  UNL1       -0.2515
      7 N          63.2545   91.3362   12.9532 N.ar    1  UNL1       -0.1680
      8 C          64.4419   90.7682   13.6726 C.ar    1  UNL1        0.1197
      9 C          64.5309   89.3083   13.3396 C.ar    1  UNL1        0.0384
     10 C          63.3985   88.9740   12.4145 C.ar    1  UNL1        0.0773
     11 C          62.9837   87.6904   11.7586 C.3     1  UNL1        0.1393
     12 C          62.1542   85.1230   10.4469 C.ar    1  UNL1        0.0536
     13 C          63.1047   84.6239    9.3992 C.ar    1  UNL1        0.0045
     14 C          63.8936   83.3706    9.6381 C.ar    1  UNL1        0.0001
     15 C          63.7319   82.6164   10.9246 C.ar    1  UNL1        0.0000
     16 C          62.7814   83.1155   11.9722 C.ar    1  UNL1        0.0001
     17 C          61.9926   84.3687   11.7334 C.ar    1  UNL1        0.0045
     18 C          65.3763   91.5269   14.5679 C.ar    1  UNL1        0.1006
     19 C          66.7994   91.7503   14.1498 C.ar    1  UNL1        0.0207
     20 C          67.7338   92.5089   15.0449 C.ar    1  UNL1        0.0032
     21 C          67.2451   93.0441   16.3582 C.ar    1  UNL1        0.0207
     22 C          65.8219   92.8207   16.7762 C.ar    1  UNL1        0.0989
     23 N          64.8875   92.0621   15.8811 N.ar    1  UNL1       -0.2423
@<TRIPOS>BOND
     1     1     2    2
     2     2    12    1
     3    12    13   ar
     4    13    14   ar
     5    14    15   ar
     6    15    16   ar
     7    16    17   ar
     8     2     3   am
     9     3     4    1
    10     4     5    1
    11     5     6    1
    12     6     7   ar
    13     7     8   ar
    14     8    18    1
    15    18    19   ar
    16    19    20   ar
    17    20    21   ar
    18    21    22   ar
    19    22    23   ar
    20     8     9   ar
    21     9    10   ar
    22    10    11    1
    23    17    12   ar
    24    11     3    1
    25    10     6   ar
    26    23    18   ar
@<TRIPOS>MOLECULE
*****
 23 26 0 0 0
SMALL
GASTEIGER

@<TRIPOS>ATOM
      1 O          64.1882   90.5978   15.3534 O.2     1  UNL1       -0.2699
      2 C          63.9324   89.7310   14.1563 C.2     1  UNL1        0.2494
      3 N          63.8528   88.2412   14.3123 N.am    1  UNL1       -0.2684
      4 C          64.0290   87.6183   15.6654 C.3     1  UNL1        0.1204
      5 C          63.9494   86.1286   15.8214 C.3     1  UNL1        0.1486
      6 N          63.6935   85.2618   14.6243 N.ar    1  UNL1       -0.2515
      7 N          63.5638   83.7752   14.4708 N.ar    1  UNL1       -0.1680
      8 C          63.3074   83.4794   13.0228 C.ar    1  UNL1        0.1197
      9 C          63.2787   84.7831   12.2814 C.ar    1  UNL1        0.0384
     10 C          63.5173   85.8846   13.2712 C.ar    1  UNL1        0.0773
     11 C          63.5969   87.3743   13.1152 C.3     1  UNL1        0.1393
     12 C          63.7562   90.3538   12.8032 C.ar    1  UNL1        0.0536
     13 C          62.6904   89.8470   11.8773 C.ar    1  UNL1        0.0045
     14 C          62.5142   90.4700   10.5241 C.ar    1  UNL1        0.0001
     15 C          63.4038   91.5996   10.0969 C.ar    1  UNL1        0.0000
     16 C          64.4696   92.1064   11.0228 C.ar    1  UNL1        0.0001
     17 C          64.6458   91.4835   12.3759 C.ar    1  UNL1        0.0045
     18 C          63.1137   82.1188   12.4217 C.ar    1  UNL1        0.1006
     19 C          63.3584   81.9041   10.9575 C.ar    1  UNL1        0.0207
     20 C          63.1648   80.5435   10.3563 C.ar    1  UNL1        0.0032
     21 C          62.7264   79.3978   11.2194 C.ar    1  UNL1        0.0207
     22 C          62.4816   79.6125   12.6836 C.ar    1  UNL1        0.0989
     23 N          62.6753   80.9730   13.2848 N.ar    1  UNL1       -0.2423
@<TRIPOS>BOND
     1     1     2    2
     2     2    12    1
     3    12    13   ar
     4    13    14   ar
     5    14    15   ar
     6    15    16   ar
     7    16    17   ar
     8     2     3   am
     9     3     4    1
    10     4     5    1
    11     5     6    1
    12     6     7   ar
    13     7     8   ar
    14     8    18    1
    15    18    19   ar
    16    19    20   ar
    17    20    21   ar
    18    21    22   ar
    19    22    23   ar
    20     8     9   ar
    21     9    10   ar
    22    10    11    1
    23    17    12   ar
    24    11     3    1
    25    10     6   ar
    26    23    18   ar
