@<TRIPOS>MOLECULE
*****
 39 42 0 0 0
SMALL
GASTEIGER

@<TRIPOS>ATOM
      1 N          62.7882   88.9924   11.4767 N.am    1  UNL1       -0.2927
      2 C          61.4523   89.2005   10.8272 C.2     1  UNL1        0.2508
      3 O          60.6191   90.3935   11.1911 O.2     1  UNL1       -0.2700
      4 H          63.3351   88.2094   11.2379 H       1  UNL1        0.1502
      5 C          60.9496   88.2156    9.8136 C.ar    1  UNL1        0.1068
      6 C          59.8098   88.5843    8.9108 C.ar    1  UNL1        0.0108
      7 C          59.3071   87.5994    7.8972 C.ar    1  UNL1        0.0210
      8 C          59.9442   86.2460    7.7864 C.ar    1  UNL1        0.1021
      9 N          61.0840   85.8774    8.6892 N.ar    1  UNL1       -0.2097
     10 C          61.5867   86.8622    9.7028 C.ar    1  UNL1        0.2340
     11 O          62.7265   86.4936   10.6055 O.3     1  UNL1       -0.4351
     12 C          62.7480   85.1524   11.2769 C.ar    1  UNL1        0.1576
     13 C          62.2694   85.0142   12.6918 C.ar    1  UNL1        0.0384
     14 C          62.2909   83.6730   13.3631 C.ar    1  UNL1        0.0070
     15 C          62.7911   82.4701   12.6197 C.ar    1  UNL1        0.0725
     16 C          63.2698   82.6083   11.2048 C.ar    1  UNL1        0.0183
     17 C          63.2482   83.9495   10.5334 C.ar    1  UNL1        0.0921
     18 CL         63.7269   84.0877    9.1186 Cl      1  UNL1       -0.0791
     19 C          62.8127   81.1289   13.2910 C.3     1  UNL1        0.4186
     20 F          62.8343   79.7876   13.9624 F       1  UNL1       -0.1659
     21 F          64.3122   81.1361   13.2573 F       1  UNL1       -0.1659
     22 F          61.3131   81.1216   13.3247 F       1  UNL1       -0.1659
     23 C          63.2910   89.9773   12.4904 C.3     1  UNL1        0.1789
     24 C          68.0932   93.7817   15.6073 C.3     1  UNL1        0.0897
     25 N          67.0714   93.1405   14.7157 N.3     1  UNL1       -0.2686
     26 C          66.7648   93.7389   13.3749 C.3     1  UNL1        0.0939
     27 C          65.7431   93.0977   12.4834 C.3     1  UNL1        0.1108
     28 N          65.0279   91.8581   12.9326 N.am    1  UNL1       -0.2753
     29 C          64.0061   91.2169   12.0411 C.2     1  UNL1        0.2462
     30 O          63.6995   91.8153   10.7003 O.2     1  UNL1       -0.2730
     31 C          65.3345   91.2597   14.2735 C.3     1  UNL1        0.1108
     32 C          66.3563   91.9009   15.1650 C.3     1  UNL1        0.0939
     33 C          63.0785   89.7225   13.9532 C.3     1  UNL1        0.1710
     34 O          63.7989   88.5945   14.6304 O.3     1  UNL1       -0.3515
     35 C          63.4167   88.1892   16.0232 C.3     1  UNL1        0.1421
     36 C          63.4488   86.7428   16.4189 C.3     1  UNL1        0.0274
     37 C          62.6109   86.7942   17.6620 C.3     1  UNL1        0.0025
     38 C          63.7718   85.2784   16.3829 C.3     1  UNL1        0.0025
     39 C          64.2977   86.1890   15.3132 C.3     1  UNL1        0.0025
@<TRIPOS>BOND
     1    24    25    1
     2    25    26    1
     3    26    27    1
     4    27    28    1
     5    28    29   am
     6    29    30    2
     7    29    23    1
     8    23    33    1
     9    33    34    1
    10    34    35    1
    11    35    36    1
    12    36    37    1
    13    36    38    1
    14    38    39    1
    15    23     1    1
    16     1     2   am
    17     2     3    2
    18     2     5    1
    19     5     6   ar
    20     6     7   ar
    21     7     8   ar
    22     8     9   ar
    23     9    10   ar
    24    10    11    1
    25    11    12    1
    26    12    13   ar
    27    13    14   ar
    28    14    15   ar
    29    15    19    1
    30    19    20    1
    31    19    21    1
    32    19    22    1
    33    15    16   ar
    34    16    17   ar
    35    17    18    1
    36    28    31    1
    37    31    32    1
    38    32    25    1
    39    39    36    1
    40    10     5   ar
    41    17    12   ar
    42     1     4    1
@<TRIPOS>MOLECULE
*****
 39 42 0 0 0
SMALL
GASTEIGER

@<TRIPOS>ATOM
      1 N          62.9256   89.7268   10.5411 N.am    1  UNL1       -0.2927
      2 C          61.4470   89.6503   10.3005 C.2     1  UNL1        0.2508
      3 O          60.5351   90.6781   10.9022 O.2     1  UNL1       -0.2700
      4 H          63.5241   89.0522   10.1461 H       1  UNL1        0.1502
      5 C          60.8803   88.5461    9.4581 C.ar    1  UNL1        0.1068
      6 C          59.7643   88.8327    8.4976 C.ar    1  UNL1        0.0108
      7 C          59.1976   87.7286    7.6552 C.ar    1  UNL1        0.0210
      8 C          59.7468   86.3378    7.7733 C.ar    1  UNL1        0.1021
      9 N          60.8628   86.0512    8.7337 N.ar    1  UNL1       -0.2097
     10 C          61.4295   87.1553    9.5761 C.ar    1  UNL1        0.2340
     11 O          62.5455   86.8687   10.5365 O.3     1  UNL1       -0.4351
     12 C          62.6590   85.5147   11.1720 C.ar    1  UNL1        0.1576
     13 C          62.2586   85.3226   12.6048 C.ar    1  UNL1        0.0384
     14 C          62.3720   83.9686   13.2402 C.ar    1  UNL1        0.0070
     15 C          62.8858   82.8066   12.4429 C.ar    1  UNL1        0.0725
     16 C          63.2862   82.9986   11.0101 C.ar    1  UNL1        0.0183
     17 C          63.1728   84.3527   10.3746 C.ar    1  UNL1        0.0921
     18 CL         63.5732   84.5446    8.9419 Cl      1  UNL1       -0.0791
     19 C          62.9993   81.4527   13.0783 C.3     1  UNL1        0.4186
     20 F          63.1128   80.0986   13.7137 F       1  UNL1       -0.1659
     21 F          64.4928   81.5207   12.9565 F       1  UNL1       -0.1659
     22 F          61.5058   81.3846   13.2000 F       1  UNL1       -0.1659
     23 C          63.4923   90.8310   11.3835 C.3     1  UNL1        0.1789
     24 C          67.8286   93.4266   16.0428 C.3     1  UNL1        0.0897
     25 N          66.7532   92.7431   15.2513 N.3     1  UNL1       -0.2686
     26 C          65.7128   91.9215   15.9529 C.3     1  UNL1        0.0939
     27 C          64.6375   91.2380   15.1614 C.3     1  UNL1        0.1108
     28 N          64.6025   91.3762   13.6682 N.am    1  UNL1       -0.2753
     29 C          63.5272   90.6928   12.8766 C.2     1  UNL1        0.2462
     30 O          62.4868   89.8711   13.5783 O.2     1  UNL1       -0.2730
     31 C          65.6430   92.1979   12.9666 C.3     1  UNL1        0.1108
     32 C          66.7183   92.8813   13.7581 C.3     1  UNL1        0.0939
     33 C          64.0241   92.0734   10.7326 C.3     1  UNL1        0.1710
     34 O          65.3781   92.0612   10.0871 O.3     1  UNL1       -0.3515
     35 C          66.1974   93.3168   10.0390 C.3     1  UNL1        0.1421
     36 C          67.6080   93.2729    9.5310 C.3     1  UNL1        0.0274
     37 C          67.6836   94.6106    8.8564 C.3     1  UNL1        0.0025
     38 C          68.9924   92.7644    9.2571 C.3     1  UNL1        0.0025
     39 C          68.0222   91.9200   10.0290 C.3     1  UNL1        0.0025
@<TRIPOS>BOND
     1    24    25    1
     2    25    26    1
     3    26    27    1
     4    27    28    1
     5    28    29   am
     6    29    30    2
     7    29    23    1
     8    23    33    1
     9    33    34    1
    10    34    35    1
    11    35    36    1
    12    36    37    1
    13    36    38    1
    14    38    39    1
    15    23     1    1
    16     1     2   am
    17     2     3    2
    18     2     5    1
    19     5     6   ar
    20     6     7   ar
    21     7     8   ar
    22     8     9   ar
    23     9    10   ar
    24    10    11    1
    25    11    12    1
    26    12    13   ar
    27    13    14   ar
    28    14    15   ar
    29    15    19    1
    30    19    20    1
    31    19    21    1
    32    19    22    1
    33    15    16   ar
    34    16    17   ar
    35    17    18    1
    36    28    31    1
    37    31    32    1
    38    32    25    1
    39    39    36    1
    40    10     5   ar
    41    17    12   ar
    42     1     4    1
@<TRIPOS>MOLECULE
*****
 39 42 0 0 0
SMALL
GASTEIGER

@<TRIPOS>ATOM
      1 N          62.1644   85.2395   12.2706 N.am    1  UNL1       -0.2927
      2 C          62.3610   86.6622   11.8380 C.2     1  UNL1        0.2508
      3 O          63.4449   87.4922   12.4594 O.2     1  UNL1       -0.2700
      4 H          61.4531   84.6947   11.8627 H       1  UNL1        0.1502
      5 C          61.4736   87.2549   10.7838 C.ar    1  UNL1        0.1068
      6 C          60.9646   86.3976    9.6630 C.ar    1  UNL1        0.0108
      7 C          60.0773   86.9903    8.6088 C.ar    1  UNL1        0.0210
      8 C          59.6988   88.4402    8.6754 C.ar    1  UNL1        0.1021
      9 N          60.2078   89.2975    9.7962 N.ar    1  UNL1       -0.2097
     10 C          61.0951   88.7048   10.8504 C.ar    1  UNL1        0.2340
     11 O          61.6040   89.5621   11.9711 O.3     1  UNL1       -0.4351
     12 C          62.7411   90.5109   11.7329 C.ar    1  UNL1        0.1576
     13 C          62.9986   91.0418   10.3537 C.ar    1  UNL1        0.0384
     14 C          64.1356   91.9905   10.1155 C.ar    1  UNL1        0.0070
     15 C          65.0153   92.4085   11.2563 C.ar    1  UNL1        0.0725
     16 C          64.7579   91.8776   12.6354 C.ar    1  UNL1        0.0183
     17 C          63.6208   90.9288   12.8737 C.ar    1  UNL1        0.0921
     18 CL         63.3634   90.3980   14.2528 Cl      1  UNL1       -0.0791
     19 C          66.1524   93.3573   11.0180 C.3     1  UNL1        0.4186
     20 F          67.2895   94.3061   10.7797 F       1  UNL1       -0.1659
     21 F          65.1842   94.3966   10.5360 F       1  UNL1       -0.1659
     22 F          67.1206   92.3180   11.5000 F       1  UNL1       -0.1659
     23 C          63.0519   84.6467   13.3248 C.3     1  UNL1        0.1789
     24 C          62.8161   78.4449   10.3700 C.3     1  UNL1        0.0897
     25 N          62.7963   79.6579   11.2521 N.3     1  UNL1       -0.2686
     26 C          62.4613   79.5213   12.7078 C.3     1  UNL1        0.0939
     27 C          62.4415   80.7343   13.5899 C.3     1  UNL1        0.1108
     28 N          62.7566   82.0840   13.0163 N.am    1  UNL1       -0.2753
     29 C          62.7367   83.2971   13.8984 C.2     1  UNL1        0.2462
     30 O          62.4018   83.1604   15.3541 O.2     1  UNL1       -0.2730
     31 C          63.0916   82.2206   11.5606 C.3     1  UNL1        0.1108
     32 C          63.1114   81.0076   10.6785 C.3     1  UNL1        0.0939
     33 C          64.2544   85.4037   13.8054 C.3     1  UNL1        0.1710
     34 O          64.3610   85.8055   15.2467 O.3     1  UNL1       -0.3515
     35 C          63.8483   87.1429   15.6924 C.3     1  UNL1        0.1421
     36 C          63.1552   87.2774   17.0158 C.3     1  UNL1        0.0274
     37 C          63.0717   88.7718   17.1153 C.3     1  UNL1        0.0025
     38 C          62.4911   86.8929   18.3046 C.3     1  UNL1        0.0025
     39 C          62.9980   85.8298   17.3758 C.3     1  UNL1        0.0025
@<TRIPOS>BOND
     1    24    25    1
     2    25    26    1
     3    26    27    1
     4    27    28    1
     5    28    29   am
     6    29    30    2
     7    29    23    1
     8    23    33    1
     9    33    34    1
    10    34    35    1
    11    35    36    1
    12    36    37    1
    13    36    38    1
    14    38    39    1
    15    23     1    1
    16     1     2   am
    17     2     3    2
    18     2     5    1
    19     5     6   ar
    20     6     7   ar
    21     7     8   ar
    22     8     9   ar
    23     9    10   ar
    24    10    11    1
    25    11    12    1
    26    12    13   ar
    27    13    14   ar
    28    14    15   ar
    29    15    19    1
    30    19    20    1
    31    19    21    1
    32    19    22    1
    33    15    16   ar
    34    16    17   ar
    35    17    18    1
    36    28    31    1
    37    31    32    1
    38    32    25    1
    39    39    36    1
    40    10     5   ar
    41    17    12   ar
    42     1     4    1
@<TRIPOS>MOLECULE
*****
 39 42 0 0 0
SMALL
GASTEIGER

@<TRIPOS>ATOM
      1 N          63.5793   89.7693   11.8229 N.am    1  UNL1       -0.2927
      2 C          62.1210   89.4231   11.8808 C.2     1  UNL1        0.2508
      3 O          61.2775   89.9171   13.0186 O.2     1  UNL1       -0.2700
      4 H          64.1329   89.4451   11.0761 H       1  UNL1        0.1502
      5 C          61.5060   88.5830   10.8009 C.ar    1  UNL1        0.1068
      6 C          60.5158   89.1894    9.8513 C.ar    1  UNL1        0.0108
      7 C          59.9009   88.3493    8.7714 C.ar    1  UNL1        0.0210
      8 C          60.2762   86.9029    8.6412 C.ar    1  UNL1        0.1021
      9 N          61.2664   86.2966    9.5908 N.ar    1  UNL1       -0.2097
     10 C          61.8814   87.1366   10.6706 C.ar    1  UNL1        0.2340
     11 O          62.8716   86.5302   11.6202 O.3     1  UNL1       -0.4351
     12 C          62.7625   85.0816   11.9937 C.ar    1  UNL1        0.1576
     13 C          62.2610   84.6932   13.3531 C.ar    1  UNL1        0.0384
     14 C          62.1519   83.2446   13.7265 C.ar    1  UNL1        0.0070
     15 C          62.5442   82.1843   12.7407 C.ar    1  UNL1        0.0725
     16 C          63.0457   82.5726   11.3814 C.ar    1  UNL1        0.0183
     17 C          63.1548   84.0213   11.0079 C.ar    1  UNL1        0.0921
     18 CL         63.6563   84.4096    9.6486 Cl      1  UNL1       -0.0791
     19 C          62.4351   80.7357   13.1142 C.3     1  UNL1        0.4186
     20 F          62.3260   79.2870   13.4878 F       1  UNL1       -0.1659
     21 F          62.0503   81.1247   14.5108 F       1  UNL1       -0.1659
     22 F          62.8200   80.3466   11.7176 F       1  UNL1       -0.1659
     23 C          64.1943   90.6094   12.9028 C.3     1  UNL1        0.1789
     24 C          63.6290   85.1286   17.0127 C.3     1  UNL1        0.0897
     25 N          63.6486   86.4685   16.3386 N.3     1  UNL1       -0.2686
     26 C          63.1812   87.6870   17.0780 C.3     1  UNL1        0.0939
     27 C          63.2007   89.0268   16.4039 C.3     1  UNL1        0.1108
     28 N          63.6877   89.1482   14.9904 N.am    1  UNL1       -0.2753
     29 C          63.7073   90.4880   14.3163 C.2     1  UNL1        0.2462
     30 O          63.2399   91.7065   15.0557 O.2     1  UNL1       -0.2730
     31 C          64.1552   87.9297   14.2510 C.3     1  UNL1        0.1108
     32 C          64.1356   86.5898   14.9251 C.3     1  UNL1        0.0939
     33 C          65.2962   91.5708   12.5691 C.3     1  UNL1        0.1710
     34 O          65.4528   92.0740   11.1646 O.3     1  UNL1       -0.3515
     35 C          66.2115   93.3411   10.9021 C.3     1  UNL1        0.1421
     36 C          67.3286   93.3527    9.9012 C.3     1  UNL1        0.0274
     37 C          67.1412   94.7218    9.3177 C.3     1  UNL1        0.0025
     38 C          68.5109   92.8888    9.1030 C.3     1  UNL1        0.0025
     39 C          67.9040   91.9877   10.1372 C.3     1  UNL1        0.0025
@<TRIPOS>BOND
     1    24    25    1
     2    25    26    1
     3    26    27    1
     4    27    28    1
     5    28    29   am
     6    29    30    2
     7    29    23    1
     8    23    33    1
     9    33    34    1
    10    34    35    1
    11    35    36    1
    12    36    37    1
    13    36    38    1
    14    38    39    1
    15    23     1    1
    16     1     2   am
    17     2     3    2
    18     2     5    1
    19     5     6   ar
    20     6     7   ar
    21     7     8   ar
    22     8     9   ar
    23     9    10   ar
    24    10    11    1
    25    11    12    1
    26    12    13   ar
    27    13    14   ar
    28    14    15   ar
    29    15    19    1
    30    19    20    1
    31    19    21    1
    32    19    22    1
    33    15    16   ar
    34    16    17   ar
    35    17    18    1
    36    28    31    1
    37    31    32    1
    38    32    25    1
    39    39    36    1
    40    10     5   ar
    41    17    12   ar
    42     1     4    1
@<TRIPOS>MOLECULE
*****
 39 42 0 0 0
SMALL
GASTEIGER

@<TRIPOS>ATOM
      1 N          63.9412   88.8707   12.8728 N.am    1  UNL1       -0.2927
      2 C          63.9154   88.0035   14.0964 C.2     1  UNL1        0.2508
      3 O          63.8132   88.6281   15.4564 O.2     1  UNL1       -0.2700
      4 H          64.0083   88.4607   11.9803 H       1  UNL1        0.1502
      5 C          63.9919   86.5116   13.9601 C.ar    1  UNL1        0.1068
      6 C          64.7973   85.7094   14.9388 C.ar    1  UNL1        0.0108
      7 C          64.8738   84.2176   14.8026 C.ar    1  UNL1        0.0210
      8 C          64.1450   83.5280   13.6877 C.ar    1  UNL1        0.1021
      9 N          63.3396   84.3302   12.7090 N.ar    1  UNL1       -0.2097
     10 C          63.2631   85.8220   12.8452 C.ar    1  UNL1        0.2340
     11 O          62.4577   86.6242   11.8665 O.3     1  UNL1       -0.4351
     12 C          62.2671   86.1252   10.4649 C.ar    1  UNL1        0.1576
     13 C          63.2538   85.1647    9.8700 C.ar    1  UNL1        0.0384
     14 C          63.0633   84.6657    8.4684 C.ar    1  UNL1        0.0070
     15 C          61.8859   85.1271    7.6615 C.ar    1  UNL1        0.0725
     16 C          60.8992   86.0876    8.2563 C.ar    1  UNL1        0.0183
     17 C          61.0898   86.5867    9.6580 C.ar    1  UNL1        0.0921
     18 CL         60.1031   87.5471   10.2528 Cl      1  UNL1       -0.0791
     19 C          61.6954   84.6281    6.2599 C.3     1  UNL1        0.4186
     20 F          61.5048   84.1291    4.8582 F       1  UNL1       -0.1659
     21 F          63.1829   84.5392    6.0893 F       1  UNL1       -0.1659
     22 F          60.2078   84.7171    6.4305 F       1  UNL1       -0.1659
     23 C          63.8647   90.3626   13.0091 C.3     1  UNL1        0.1789
     24 C          69.5112   93.3094   15.5943 C.3     1  UNL1        0.0897
     25 N          68.1619   92.7340   15.2807 N.3     1  UNL1       -0.2686
     26 C          67.0619   92.8040   16.2981 C.3     1  UNL1        0.0939
     27 C          65.7126   92.2286   15.9845 C.3     1  UNL1        0.1108
     28 N          65.4633   91.5833   14.6536 N.am    1  UNL1       -0.2753
     29 C          64.1140   91.0079   14.3400 C.2     1  UNL1        0.2462
     30 O          63.0140   91.0778   15.3574 O.2     1  UNL1       -0.2730
     31 C          66.5633   91.5133   13.6362 C.3     1  UNL1        0.1108
     32 C          67.9126   92.0887   13.9498 C.3     1  UNL1        0.0939
     33 C          63.5389   91.2091   11.8144 C.3     1  UNL1        0.1710
     34 O          64.6425   91.7425   10.9497 O.3     1  UNL1       -0.3515
     35 C          65.3076   93.0410   11.2986 C.3     1  UNL1        0.1421
     36 C          66.3522   93.6167   10.3891 C.3     1  UNL1        0.0274
     37 C          65.8771   95.0374   10.3131 C.3     1  UNL1        0.0025
     38 C          67.5619   93.6990    9.5059 C.3     1  UNL1        0.0025
     39 C          67.1901   92.3959   10.1492 C.3     1  UNL1        0.0025
@<TRIPOS>BOND
     1    24    25    1
     2    25    26    1
     3    26    27    1
     4    27    28    1
     5    28    29   am
     6    29    30    2
     7    29    23    1
     8    23    33    1
     9    33    34    1
    10    34    35    1
    11    35    36    1
    12    36    37    1
    13    36    38    1
    14    38    39    1
    15    23     1    1
    16     1     2   am
    17     2     3    2
    18     2     5    1
    19     5     6   ar
    20     6     7   ar
    21     7     8   ar
    22     8     9   ar
    23     9    10   ar
    24    10    11    1
    25    11    12    1
    26    12    13   ar
    27    13    14   ar
    28    14    15   ar
    29    15    19    1
    30    19    20    1
    31    19    21    1
    32    19    22    1
    33    15    16   ar
    34    16    17   ar
    35    17    18    1
    36    28    31    1
    37    31    32    1
    38    32    25    1
    39    39    36    1
    40    10     5   ar
    41    17    12   ar
    42     1     4    1
@<TRIPOS>MOLECULE
*****
 39 42 0 0 0
SMALL
GASTEIGER

@<TRIPOS>ATOM
      1 N          63.2222   88.9758   13.1582 N.am    1  UNL1       -0.2927
      2 C          63.2392   89.3397   14.6132 C.2     1  UNL1        0.2508
      3 O          63.2365   90.7818   15.0257 O.2     1  UNL1       -0.2700
      4 H          63.2240   88.0292   12.8874 H       1  UNL1        0.1502
      5 C          63.2587   88.2614   15.6559 C.ar    1  UNL1        0.1068
      6 C          62.8849   88.5814   17.0728 C.ar    1  UNL1        0.0108
      7 C          62.9045   87.5032   18.1155 C.ar    1  UNL1        0.0210
      8 C          63.2979   86.1050   17.7411 C.ar    1  UNL1        0.1021
      9 N          63.6717   85.7850   16.3241 N.ar    1  UNL1       -0.2097
     10 C          63.6521   86.8632   15.2815 C.ar    1  UNL1        0.2340
     11 O          64.0259   86.5432   13.8645 O.3     1  UNL1       -0.4351
     12 C          63.7622   85.1746   13.3101 C.ar    1  UNL1        0.1576
     13 C          62.5610   84.9347   12.4442 C.ar    1  UNL1        0.0384
     14 C          62.2973   83.5662   11.8898 C.ar    1  UNL1        0.0070
     15 C          63.2348   82.4374   12.2012 C.ar    1  UNL1        0.0725
     16 C          64.4359   82.6771   13.0670 C.ar    1  UNL1        0.0183
     17 C          64.6997   84.0458   13.6215 C.ar    1  UNL1        0.0921
     18 CL         65.9008   84.2856   14.4873 Cl      1  UNL1       -0.0791
     19 C          62.9711   81.0688   11.6468 C.3     1  UNL1        0.4186
     20 F          62.7074   79.7001   11.0923 F       1  UNL1       -0.1659
     21 F          63.4454   81.5236   10.2985 F       1  UNL1       -0.1659
     22 F          62.4967   80.6140   12.9951 F       1  UNL1       -0.1659
     23 C          63.2026   90.0541   12.1155 C.3     1  UNL1        0.1789
     24 C          60.3345   85.8261    7.5169 C.3     1  UNL1        0.0897
     25 N          60.7503   86.9266    8.4475 N.3     1  UNL1       -0.2686
     26 C          59.9614   88.2011    8.5016 C.3     1  UNL1        0.0939
     27 C          60.3772   89.3016    9.4322 C.3     1  UNL1        0.1108
     28 N          61.5820   89.1276   10.3086 N.am    1  UNL1       -0.2753
     29 C          61.9979   90.2281   11.2391 C.2     1  UNL1        0.2462
     30 O          61.2089   91.5027   11.2933 O.2     1  UNL1       -0.2730
     31 C          62.3710   87.8530   10.2544 C.3     1  UNL1        0.1108
     32 C          61.9551   86.7525    9.3239 C.3     1  UNL1        0.0939
     33 C          64.3879   90.9582   11.9494 C.3     1  UNL1        0.1710
     34 O          64.4985   92.2084   12.7710 O.3     1  UNL1       -0.3515
     35 C          65.8346   92.8616   12.9665 C.3     1  UNL1        0.1421
     36 C          66.8513   92.2331   13.8728 C.3     1  UNL1        0.0274
     37 C          67.8883   91.8352   12.8647 C.3     1  UNL1        0.0025
     38 C          67.5078   91.7428   15.1293 C.3     1  UNL1        0.0025
     39 C          66.1673   92.4127   15.1956 C.3     1  UNL1        0.0025
@<TRIPOS>BOND
     1    24    25    1
     2    25    26    1
     3    26    27    1
     4    27    28    1
     5    28    29   am
     6    29    30    2
     7    29    23    1
     8    23    33    1
     9    33    34    1
    10    34    35    1
    11    35    36    1
    12    36    37    1
    13    36    38    1
    14    38    39    1
    15    23     1    1
    16     1     2   am
    17     2     3    2
    18     2     5    1
    19     5     6   ar
    20     6     7   ar
    21     7     8   ar
    22     8     9   ar
    23     9    10   ar
    24    10    11    1
    25    11    12    1
    26    12    13   ar
    27    13    14   ar
    28    14    15   ar
    29    15    19    1
    30    19    20    1
    31    19    21    1
    32    19    22    1
    33    15    16   ar
    34    16    17   ar
    35    17    18    1
    36    28    31    1
    37    31    32    1
    38    32    25    1
    39    39    36    1
    40    10     5   ar
    41    17    12   ar
    42     1     4    1
@<TRIPOS>MOLECULE
*****
 39 42 0 0 0
SMALL
GASTEIGER

@<TRIPOS>ATOM
      1 N          63.9947   89.3188   13.7802 N.am    1  UNL1       -0.2927
      2 C          63.4846   89.4341   15.1860 C.2     1  UNL1        0.2508
      3 O          63.1242   90.7784   15.7452 O.2     1  UNL1       -0.2700
      4 H          64.2313   88.4364   13.4132 H       1  UNL1        0.1502
      5 C          63.3349   88.2049   16.0327 C.ar    1  UNL1        0.1068
      6 C          62.9291   88.3301   17.4714 C.ar    1  UNL1        0.0108
      7 C          62.7793   87.1011   18.3181 C.ar    1  UNL1        0.0210
      8 C          63.0355   85.7468   17.7262 C.ar    1  UNL1        0.1021
      9 N          63.4414   85.6216   16.2876 N.ar    1  UNL1       -0.2097
     10 C          63.5911   86.8507   15.4409 C.ar    1  UNL1        0.2340
     11 O          63.9970   86.7255   14.0023 O.3     1  UNL1       -0.4351
     12 C          63.7844   85.4322   13.2728 C.ar    1  UNL1        0.1576
     13 C          62.6485   85.2962   12.3026 C.ar    1  UNL1        0.0384
     14 C          62.4359   84.0029   11.5731 C.ar    1  UNL1        0.0070
     15 C          63.3591   82.8455   11.8139 C.ar    1  UNL1        0.0725
     16 C          64.4950   82.9814   12.7841 C.ar    1  UNL1        0.0183
     17 C          64.7076   84.2748   13.5136 C.ar    1  UNL1        0.0921
     18 CL         65.8435   84.4107   14.4837 Cl      1  UNL1       -0.0791
     19 C          63.1466   81.5522   11.0844 C.3     1  UNL1        0.4186
     20 F          62.9339   80.2588   10.3550 F       1  UNL1       -0.1659
     21 F          62.4599   80.9845   12.2911 F       1  UNL1       -0.1659
     22 F          63.8332   82.1199    9.8777 F       1  UNL1       -0.1659
     23 C          64.1444   90.5479   12.9334 C.3     1  UNL1        0.1789
     24 C          66.4940   96.0062    9.4785 C.3     1  UNL1        0.0897
     25 N          66.1487   94.9099   10.4423 N.3     1  UNL1       -0.2686
     26 C          66.7721   94.8867   11.8065 C.3     1  UNL1        0.0939
     27 C          66.4268   93.7904   12.7703 C.3     1  UNL1        0.1108
     28 N          65.4582   92.7173   12.3700 N.am    1  UNL1       -0.2753
     29 C          65.1130   91.6210   13.3338 C.2     1  UNL1        0.2462
     30 O          65.7363   91.5978   14.6979 O.2     1  UNL1       -0.2730
     31 C          64.8349   92.7405   11.0058 C.3     1  UNL1        0.1108
     32 C          65.1802   93.8368   10.0420 C.3     1  UNL1        0.0939
     33 C          63.3256   90.7039   11.6864 C.3     1  UNL1        0.1710
     34 O          62.1006   89.8622   11.4834 O.3     1  UNL1       -0.3515
     35 C          62.2041   88.5469   10.7699 C.3     1  UNL1        0.1421
     36 C          61.2923   88.2447    9.6178 C.3     1  UNL1        0.0274
     37 C          61.8982   86.9598    9.1362 C.3     1  UNL1        0.0025
     38 C          60.1701   88.3888    8.6330 C.3     1  UNL1        0.0025
     39 C          60.3699   89.4247    9.6993 C.3     1  UNL1        0.0025
@<TRIPOS>BOND
     1    24    25    1
     2    25    26    1
     3    26    27    1
     4    27    28    1
     5    28    29   am
     6    29    30    2
     7    29    23    1
     8    23    33    1
     9    33    34    1
    10    34    35    1
    11    35    36    1
    12    36    37    1
    13    36    38    1
    14    38    39    1
    15    23     1    1
    16     1     2   am
    17     2     3    2
    18     2     5    1
    19     5     6   ar
    20     6     7   ar
    21     7     8   ar
    22     8     9   ar
    23     9    10   ar
    24    10    11    1
    25    11    12    1
    26    12    13   ar
    27    13    14   ar
    28    14    15   ar
    29    15    19    1
    30    19    20    1
    31    19    21    1
    32    19    22    1
    33    15    16   ar
    34    16    17   ar
    35    17    18    1
    36    28    31    1
    37    31    32    1
    38    32    25    1
    39    39    36    1
    40    10     5   ar
    41    17    12   ar
    42     1     4    1
@<TRIPOS>MOLECULE
*****
 39 42 0 0 0
SMALL
GASTEIGER

@<TRIPOS>ATOM
      1 N          63.4971   89.5850   13.4352 N.am    1  UNL1       -0.2927
      2 C          63.8389   89.5733   14.8956 C.2     1  UNL1        0.2508
      3 O          64.5545   90.7409   15.5078 O.2     1  UNL1       -0.2700
      4 H          63.0274   88.8187   13.0334 H       1  UNL1        0.1502
      5 C          63.4651   88.3941   15.7440 C.ar    1  UNL1        0.1068
      6 C          63.0578   88.5974   17.1733 C.ar    1  UNL1        0.0108
      7 C          62.6840   87.4182   18.0216 C.ar    1  UNL1        0.0210
      8 C          62.7174   86.0357   17.4407 C.ar    1  UNL1        0.1021
      9 N          63.1247   85.8324   16.0114 N.ar    1  UNL1       -0.2097
     10 C          63.4985   87.0116   15.1631 C.ar    1  UNL1        0.2340
     11 O          63.9057   86.8082   13.7338 O.3     1  UNL1       -0.4351
     12 C          63.7133   85.4710   13.0821 C.ar    1  UNL1        0.1576
     13 C          62.6334   85.2843   12.0579 C.ar    1  UNL1        0.0384
     14 C          62.4409   83.9471   11.4061 C.ar    1  UNL1        0.0070
     15 C          63.3283   82.7965   11.7786 C.ar    1  UNL1        0.0725
     16 C          64.4082   82.9832   12.8027 C.ar    1  UNL1        0.0183
     17 C          64.6007   84.3205   13.4545 C.ar    1  UNL1        0.0921
     18 CL         65.6806   84.5071   14.4787 Cl      1  UNL1       -0.0791
     19 C          63.1359   81.4593   11.1269 C.3     1  UNL1        0.4186
     20 F          62.9434   80.1220   10.4751 F       1  UNL1       -0.1659
     21 F          62.2453   81.0365   12.2573 F       1  UNL1       -0.1659
     22 F          64.0265   81.8821    9.9964 F       1  UNL1       -0.1659
     23 C          63.8709   90.7643   12.5868 C.3     1  UNL1        0.1789
     24 C          59.1593   87.0230    9.2621 C.3     1  UNL1        0.0897
     25 N          60.1921   87.9955    9.7495 N.3     1  UNL1       -0.2686
     26 C          60.6444   89.1168    8.8619 C.3     1  UNL1        0.0939
     27 C          61.6772   90.0893    9.3492 C.3     1  UNL1        0.1108
     28 N          62.2577   89.9406   10.7243 N.am    1  UNL1       -0.2753
     29 C          63.2905   90.9131   11.2117 C.2     1  UNL1        0.2462
     30 O          63.7428   92.0344   10.3240 O.2     1  UNL1       -0.2730
     31 C          61.8053   88.8193   11.6120 C.3     1  UNL1        0.1108
     32 C          60.7726   87.8467   11.1246 C.3     1  UNL1        0.0939
     33 C          64.8252   91.7948   13.1136 C.3     1  UNL1        0.1710
     34 O          66.0763   92.1174   12.3516 O.3     1  UNL1       -0.3515
     35 C          66.3370   93.5234   11.8984 C.3     1  UNL1        0.1421
     36 C          66.9569   93.7760   10.5561 C.3     1  UNL1        0.0274
     37 C          66.6248   95.2289   10.3852 C.3     1  UNL1        0.0025
     38 C          67.6921   93.5242    9.2731 C.3     1  UNL1        0.0025
     39 C          67.5041   92.4111   10.2609 C.3     1  UNL1        0.0025
@<TRIPOS>BOND
     1    24    25    1
     2    25    26    1
     3    26    27    1
     4    27    28    1
     5    28    29   am
     6    29    30    2
     7    29    23    1
     8    23    33    1
     9    33    34    1
    10    34    35    1
    11    35    36    1
    12    36    37    1
    13    36    38    1
    14    38    39    1
    15    23     1    1
    16     1     2   am
    17     2     3    2
    18     2     5    1
    19     5     6   ar
    20     6     7   ar
    21     7     8   ar
    22     8     9   ar
    23     9    10   ar
    24    10    11    1
    25    11    12    1
    26    12    13   ar
    27    13    14   ar
    28    14    15   ar
    29    15    19    1
    30    19    20    1
    31    19    21    1
    32    19    22    1
    33    15    16   ar
    34    16    17   ar
    35    17    18    1
    36    28    31    1
    37    31    32    1
    38    32    25    1
    39    39    36    1
    40    10     5   ar
    41    17    12   ar
    42     1     4    1
@<TRIPOS>MOLECULE
*****
 39 42 0 0 0
SMALL
GASTEIGER

@<TRIPOS>ATOM
      1 N          63.0115   90.2302   12.9546 N.am    1  UNL1       -0.2927
      2 C          63.0050   88.7908   12.5327 C.2     1  UNL1        0.2508
      3 O          63.8354   87.7874   13.2766 O.2     1  UNL1       -0.2700
      4 H          62.4665   90.8888   12.4663 H       1  UNL1        0.1502
      5 C          62.1679   88.3548   11.3667 C.ar    1  UNL1        0.1068
      6 C          61.1091   89.2664   10.8211 C.ar    1  UNL1        0.0108
      7 C          60.2721   88.8305    9.6552 C.ar    1  UNL1        0.0210
      8 C          60.4939   87.4829    9.0349 C.ar    1  UNL1        0.1021
      9 N          61.5528   86.5713    9.5806 N.ar    1  UNL1       -0.2097
     10 C          62.3898   87.0072   10.7465 C.ar    1  UNL1        0.2340
     11 O          63.4487   86.0956   11.2921 O.3     1  UNL1       -0.4351
     12 C          63.0771   84.7340   11.7999 C.ar    1  UNL1        0.1576
     13 C          62.5585   84.5706   13.1979 C.ar    1  UNL1        0.0384
     14 C          62.1870   83.2089   13.7057 C.ar    1  UNL1        0.0070
     15 C          62.3341   82.0106   12.8155 C.ar    1  UNL1        0.0725
     16 C          62.8527   82.1740   11.4176 C.ar    1  UNL1        0.0183
     17 C          63.2242   83.5356   10.9097 C.ar    1  UNL1        0.0921
     18 CL         63.7429   83.6990    9.5118 Cl      1  UNL1       -0.0791
     19 C          61.9626   80.6490   13.3233 C.3     1  UNL1        0.4186
     20 F          61.5910   79.2873   13.8311 F       1  UNL1       -0.1659
     21 F          61.2544   81.2763   14.4873 F       1  UNL1       -0.1659
     22 F          62.6707   80.0217   12.1593 F       1  UNL1       -0.1659
     23 C          63.8485   90.6663   14.1205 C.3     1  UNL1        0.1789
     24 C          66.7011   94.2501    8.9952 C.3     1  UNL1        0.0897
     25 N          66.3419   93.4654   10.2221 N.3     1  UNL1       -0.2686
     26 C          67.3985   93.1256   11.2311 C.3     1  UNL1        0.0939
     27 C          67.0393   92.3409   12.4579 C.3     1  UNL1        0.1108
     28 N          65.6235   91.8959   12.6758 N.am    1  UNL1       -0.2753
     29 C          65.2643   91.1112   13.9027 C.2     1  UNL1        0.2462
     30 O          66.3209   90.7715   14.9117 O.2     1  UNL1       -0.2730
     31 C          64.5669   92.2357   11.6668 C.3     1  UNL1        0.1108
     32 C          64.9261   93.0204   10.4399 C.3     1  UNL1        0.0939
     33 C          63.2697   90.6573   15.5043 C.3     1  UNL1        0.1710
     34 O          62.5517   89.4408   16.0091 O.3     1  UNL1       -0.3515
     35 C          63.1327   88.6412   17.1374 C.3     1  UNL1        0.1421
     36 C          63.2041   87.1462   17.0383 C.3     1  UNL1        0.0274
     37 C          62.4882   86.7671   18.3008 C.3     1  UNL1        0.0025
     38 C          63.5241   85.7829   16.5008 C.3     1  UNL1        0.0025
     39 C          63.9448   87.0062   15.7415 C.3     1  UNL1        0.0025
@<TRIPOS>BOND
     1    24    25    1
     2    25    26    1
     3    26    27    1
     4    27    28    1
     5    28    29   am
     6    29    30    2
     7    29    23    1
     8    23    33    1
     9    33    34    1
    10    34    35    1
    11    35    36    1
    12    36    37    1
    13    36    38    1
    14    38    39    1
    15    23     1    1
    16     1     2   am
    17     2     3    2
    18     2     5    1
    19     5     6   ar
    20     6     7   ar
    21     7     8   ar
    22     8     9   ar
    23     9    10   ar
    24    10    11    1
    25    11    12    1
    26    12    13   ar
    27    13    14   ar
    28    14    15   ar
    29    15    19    1
    30    19    20    1
    31    19    21    1
    32    19    22    1
    33    15    16   ar
    34    16    17   ar
    35    17    18    1
    36    28    31    1
    37    31    32    1
    38    32    25    1
    39    39    36    1
    40    10     5   ar
    41    17    12   ar
    42     1     4    1
