@<TRIPOS>MOLECULE
*****
 32 36 0 0 0
SMALL
GASTEIGER

@<TRIPOS>ATOM
      1 C          63.0991   86.3672   12.5676 C.2     1  UNL1        0.2684
      2 O          63.6162   87.2256   13.6838 O.2     1  UNL1       -0.2682
      3 N          62.3592   86.9919   11.4221 N.am    1  UNL1       -0.2710
      4 C          61.8421   86.1335   10.3059 C.3     1  UNL1        0.1258
      5 C          61.1021   86.7582    9.1604 C.3     1  UNL1        0.1637
      6 O          60.8792   88.2413    9.1311 O.3     1  UNL1       -0.3502
      7 C          61.3963   89.0996   10.2472 C.3     1  UNL1        0.1622
      8 C          62.1362   88.4750   11.3927 C.3     1  UNL1        0.1096
      9 C          64.0263   81.9057   10.0705 C.3     1  UNL1        0.0521
     10 C          63.7856   82.6534   11.3484 C.ar    1  UNL1        0.0596
     11 C          63.7679   81.9181   12.6557 C.ar    1  UNL1        0.0164
     12 C          63.5272   82.6658   13.9336 C.ar    1  UNL1        0.0238
     13 C          63.3043   84.1488   13.9042 C.ar    1  UNL1        0.1249
     14 C          63.3220   84.8841   12.5970 C.ar    1  UNL1        0.1535
     15 N          63.5627   84.1364   11.3191 N.ar    1  UNL1       -0.2435
     16 N          63.0637   84.8965   15.1822 N.ar    1  UNL1       -0.1462
     17 N          61.7349   85.1003   15.8476 N.ar    1  UNL1       -0.1446
     18 C          61.9595   85.9014   17.0957 C.ar    1  UNL1        0.1446
     19 C          63.4272   86.1927   17.2017 C.ar    1  UNL1        0.1446
     20 N          64.1095   85.5716   16.0190 N.ar    1  UNL1       -0.1446
     21 C          62.6533   89.3334   12.5089 C.3     1  UNL1        0.0488
     22 C          63.6376   90.4276   12.2194 C.ar    1  UNL1       -0.0189
     23 C          63.6136   91.1259   10.8921 C.ar    1  UNL1       -0.0041
     24 C          64.5979   92.2202   10.6025 C.ar    1  UNL1        0.0012
     25 C          65.6061   92.6161   11.6403 C.ar    1  UNL1        0.0191
     26 C          65.6300   91.9176   12.9676 C.ar    1  UNL1        0.0825
     27 C          64.6458   90.8234   13.2571 C.ar    1  UNL1        0.0149
     28 N          66.6382   92.3135   14.0053 N.ar    1  UNL1       -0.2282
     29 C          66.3370   92.7196   15.4175 C.ar    1  UNL1        0.1020
     30 C          67.6372   93.0298   16.0980 C.ar    1  UNL1        0.0431
     31 C          68.7421   92.8155   15.1064 C.ar    1  UNL1        0.1221
     32 N          68.1247   92.3727   13.8130 N.ar    1  UNL1       -0.1635
@<TRIPOS>BOND
     1     9    10    1
     2    10    11   ar
     3    11    12   ar
     4    12    13   ar
     5    13    16    1
     6    16    17   ar
     7    17    18   ar
     8    18    19   ar
     9    19    20   ar
    10    13    14   ar
    11    14     1    1
    12     1     2    2
    13     1     3   am
    14     3     4    1
    15     4     5    1
    16     5     6    1
    17     6     7    1
    18     7     8    1
    19     8    21    1
    20    21    22    1
    21    22    23   ar
    22    23    24   ar
    23    24    25   ar
    24    25    26   ar
    25    26    28    1
    26    28    29   ar
    27    29    30   ar
    28    30    31   ar
    29    31    32   ar
    30    26    27   ar
    31    14    15   ar
    32    15    10   ar
    33    20    16   ar
    34     8     3    1
    35    27    22   ar
    36    32    28   ar
@<TRIPOS>MOLECULE
*****
 32 36 0 0 0
SMALL
GASTEIGER

@<TRIPOS>ATOM
      1 C          62.6700   88.5378   11.5515 C.2     1  UNL1        0.2684
      2 O          62.6702   90.0373   11.5143 O.2     1  UNL1       -0.2682
      3 N          63.3092   87.8160   12.7005 N.am    1  UNL1       -0.2710
      4 C          63.3090   86.3164   12.7377 C.3     1  UNL1        0.1258
      5 C          63.9482   85.5946   13.8869 C.3     1  UNL1        0.1637
      6 O          64.5876   86.3724   14.9987 O.3     1  UNL1       -0.3502
      7 C          64.5878   87.8719   14.9615 C.3     1  UNL1        0.1622
      8 C          63.9486   88.5937   13.8125 C.3     1  UNL1        0.1096
      9 C          63.0017   84.9810    7.7779 C.3     1  UNL1        0.0521
     10 C          62.1965   85.9817    8.5527 C.ar    1  UNL1        0.0596
     11 C          60.7520   86.2046    8.2157 C.ar    1  UNL1        0.0164
     12 C          59.9468   87.2052    8.9906 C.ar    1  UNL1        0.0238
     13 C          60.5861   87.9830   10.1025 C.ar    1  UNL1        0.1249
     14 C          62.0306   87.7600   10.4395 C.ar    1  UNL1        0.1535
     15 N          62.8358   86.7594    9.6646 N.ar    1  UNL1       -0.2435
     16 N          59.7809   88.9836   10.8773 N.ar    1  UNL1       -0.1462
     17 N          59.0327   88.7178   12.1499 N.ar    1  UNL1       -0.1446
     18 C          58.3719   89.9956   12.5748 C.ar    1  UNL1        0.1446
     19 C          58.7118   91.0512   11.5647 C.ar    1  UNL1        0.1446
     20 N          59.5826   90.4257   10.5157 N.ar    1  UNL1       -0.1446
     21 C          63.9488   90.0932   13.7753 C.3     1  UNL1        0.0488
     22 C          65.2465   90.8414   13.6970 C.ar    1  UNL1       -0.0189
     23 C          66.1303   90.9383   14.9051 C.ar    1  UNL1       -0.0041
     24 C          67.4281   91.6864   14.8269 C.ar    1  UNL1        0.0012
     25 C          67.8420   92.3377   13.5406 C.ar    1  UNL1        0.0191
     26 C          66.9581   92.2407   12.3325 C.ar    1  UNL1        0.0825
     27 C          65.6604   91.4926   12.4107 C.ar    1  UNL1        0.0149
     28 N          67.3720   92.8920   11.0462 N.ar    1  UNL1       -0.2282
     29 C          68.0554   92.2151    9.8952 C.ar    1  UNL1        0.1020
     30 C          68.2810   93.2392    8.8227 C.ar    1  UNL1        0.0431
     31 C          67.7370   94.5491    9.3108 C.ar    1  UNL1        0.1221
     32 N          67.1752   94.3346   10.6851 N.ar    1  UNL1       -0.1635
@<TRIPOS>BOND
     1     9    10    1
     2    10    11   ar
     3    11    12   ar
     4    12    13   ar
     5    13    16    1
     6    16    17   ar
     7    17    18   ar
     8    18    19   ar
     9    19    20   ar
    10    13    14   ar
    11    14     1    1
    12     1     2    2
    13     1     3   am
    14     3     4    1
    15     4     5    1
    16     5     6    1
    17     6     7    1
    18     7     8    1
    19     8    21    1
    20    21    22    1
    21    22    23   ar
    22    23    24   ar
    23    24    25   ar
    24    25    26   ar
    25    26    28    1
    26    28    29   ar
    27    29    30   ar
    28    30    31   ar
    29    31    32   ar
    30    26    27   ar
    31    14    15   ar
    32    15    10   ar
    33    20    16   ar
    34     8     3    1
    35    27    22   ar
    36    32    28   ar
@<TRIPOS>MOLECULE
*****
 32 36 0 0 0
SMALL
GASTEIGER

@<TRIPOS>ATOM
      1 C          62.7222   87.3836   11.7081 C.2     1  UNL1        0.2684
      2 O          63.6786   87.8303   12.7738 O.2     1  UNL1       -0.2682
      3 N          61.6067   88.2878   11.2746 N.am    1  UNL1       -0.2710
      4 C          60.6503   87.8411   10.2089 C.3     1  UNL1        0.1258
      5 C          59.5348   88.7455    9.7753 C.3     1  UNL1        0.1637
      6 O          59.3757   90.0964   10.4075 O.3     1  UNL1       -0.3502
      7 C          60.3322   90.5431   11.4732 C.3     1  UNL1        0.1622
      8 C          61.4476   89.6388   11.9067 C.3     1  UNL1        0.1096
      9 C          62.8734   84.3915    7.4626 C.3     1  UNL1        0.0521
     10 C          62.9569   84.5366    8.9532 C.ar    1  UNL1        0.0596
     11 C          63.1994   83.3307    9.8117 C.ar    1  UNL1        0.0164
     12 C          63.2829   83.4758   11.3023 C.ar    1  UNL1        0.0238
     13 C          63.1238   84.8267   11.9345 C.ar    1  UNL1        0.1249
     14 C          62.8813   86.0326   11.0760 C.ar    1  UNL1        0.1535
     15 N          62.7978   85.8875    9.5853 N.ar    1  UNL1       -0.2435
     16 N          63.2073   84.9718   13.4251 N.ar    1  UNL1       -0.1462
     17 N          62.0788   84.7789   14.3943 N.ar    1  UNL1       -0.1446
     18 C          62.6079   85.0231   15.7765 C.ar    1  UNL1        0.1446
     19 C          64.0635   85.3669   15.6615 C.ar    1  UNL1        0.1446
     20 N          64.4339   85.3352   14.2083 N.ar    1  UNL1       -0.1446
     21 C          62.4041   90.0855   12.9724 C.3     1  UNL1        0.0488
     22 C          63.6009   90.9127   12.6072 C.ar    1  UNL1       -0.0189
     23 C          63.7554   91.4315   11.2084 C.ar    1  UNL1       -0.0041
     24 C          64.9523   92.2587   10.8431 C.ar    1  UNL1        0.0012
     25 C          65.9946   92.5670   11.8768 C.ar    1  UNL1        0.0191
     26 C          65.8401   92.0481   13.2758 C.ar    1  UNL1        0.0825
     27 C          64.6432   91.2209   13.6409 C.ar    1  UNL1        0.0149
     28 N          66.8824   92.3563   14.3094 N.ar    1  UNL1       -0.2282
     29 C          66.6291   92.6329   15.7618 C.ar    1  UNL1        0.1020
     30 C          67.9512   92.8896   16.4222 C.ar    1  UNL1        0.0431
     31 C          69.0216   92.7717   15.3780 C.ar    1  UNL1        0.1221
     32 N          68.3611   92.4421   14.0722 N.ar    1  UNL1       -0.1635
@<TRIPOS>BOND
     1     9    10    1
     2    10    11   ar
     3    11    12   ar
     4    12    13   ar
     5    13    16    1
     6    16    17   ar
     7    17    18   ar
     8    18    19   ar
     9    19    20   ar
    10    13    14   ar
    11    14     1    1
    12     1     2    2
    13     1     3   am
    14     3     4    1
    15     4     5    1
    16     5     6    1
    17     6     7    1
    18     7     8    1
    19     8    21    1
    20    21    22    1
    21    22    23   ar
    22    23    24   ar
    23    24    25   ar
    24    25    26   ar
    25    26    28    1
    26    28    29   ar
    27    29    30   ar
    28    30    31   ar
    29    31    32   ar
    30    26    27   ar
    31    14    15   ar
    32    15    10   ar
    33    20    16   ar
    34     8     3    1
    35    27    22   ar
    36    32    28   ar
@<TRIPOS>MOLECULE
*****
 32 36 0 0 0
SMALL
GASTEIGER

@<TRIPOS>ATOM
      1 C          63.3629   87.0030   13.1197 C.2     1  UNL1        0.2684
      2 O          63.8486   87.6463   14.3847 O.2     1  UNL1       -0.2682
      3 N          62.8258   87.8512   12.0052 N.am    1  UNL1       -0.2710
      4 C          62.3401   87.2079   10.7402 C.3     1  UNL1        0.1258
      5 C          61.8030   88.0562    9.6257 C.3     1  UNL1        0.1637
      6 O          61.7517   89.5477    9.7763 O.3     1  UNL1       -0.3502
      7 C          62.2374   90.1910   11.0413 C.3     1  UNL1        0.1622
      8 C          62.7744   89.3428   12.1557 C.3     1  UNL1        0.1096
      9 C          63.9765   82.8008   10.1255 C.3     1  UNL1        0.0521
     10 C          63.7210   83.4103   11.4720 C.ar    1  UNL1        0.0596
     11 C          63.5170   82.5284   12.6680 C.ar    1  UNL1        0.0164
     12 C          63.2615   83.1379   14.0146 C.ar    1  UNL1        0.0238
     13 C          63.2102   84.6294   14.1651 C.ar    1  UNL1        0.1249
     14 C          63.4142   85.5114   12.9691 C.ar    1  UNL1        0.1535
     15 N          63.6697   84.9018   11.6226 N.ar    1  UNL1       -0.2435
     16 N          62.9547   85.2389   15.5117 N.ar    1  UNL1       -0.1462
     17 N          63.9989   85.7361   16.4669 N.ar    1  UNL1       -0.1446
     18 C          63.2998   86.2628   17.6850 C.ar    1  UNL1        0.1446
     19 C          61.8235   86.0911   17.4827 C.ar    1  UNL1        0.1446
     20 N          61.6102   85.4583   16.1395 N.ar    1  UNL1       -0.1446
     21 C          63.2602   89.9861   13.4207 C.3     1  UNL1        0.0488
     22 C          64.5421   90.7649   13.4218 C.ar    1  UNL1       -0.0189
     23 C          65.4845   90.6564   14.5837 C.ar    1  UNL1       -0.0041
     24 C          66.7666   91.4352   14.5848 C.ar    1  UNL1        0.0012
     25 C          67.1061   92.3225   13.4240 C.ar    1  UNL1        0.0191
     26 C          66.1636   92.4309   12.2621 C.ar    1  UNL1        0.0825
     27 C          64.8816   91.6521   12.2610 C.ar    1  UNL1        0.0149
     28 N          66.5031   93.3182   11.1013 N.ar    1  UNL1       -0.2282
     29 C          65.7791   94.5718   10.7083 C.ar    1  UNL1        0.1020
     30 C          66.4548   95.1360    9.4938 C.ar    1  UNL1        0.0431
     31 C          67.5964   94.2311    9.1361 C.ar    1  UNL1        0.1221
     32 N          67.6263   93.1076   10.1295 N.ar    1  UNL1       -0.1635
@<TRIPOS>BOND
     1     9    10    1
     2    10    11   ar
     3    11    12   ar
     4    12    13   ar
     5    13    16    1
     6    16    17   ar
     7    17    18   ar
     8    18    19   ar
     9    19    20   ar
    10    13    14   ar
    11    14     1    1
    12     1     2    2
    13     1     3   am
    14     3     4    1
    15     4     5    1
    16     5     6    1
    17     6     7    1
    18     7     8    1
    19     8    21    1
    20    21    22    1
    21    22    23   ar
    22    23    24   ar
    23    24    25   ar
    24    25    26   ar
    25    26    28    1
    26    28    29   ar
    27    29    30   ar
    28    30    31   ar
    29    31    32   ar
    30    26    27   ar
    31    14    15   ar
    32    15    10   ar
    33    20    16   ar
    34     8     3    1
    35    27    22   ar
    36    32    28   ar
@<TRIPOS>MOLECULE
*****
 32 36 0 0 0
SMALL
GASTEIGER

@<TRIPOS>ATOM
      1 C          62.7610   87.3565   11.8671 C.2     1  UNL1        0.2684
      2 O          63.4369   87.5419   13.1932 O.2     1  UNL1       -0.2682
      3 N          61.9350   88.4648   11.2847 N.am    1  UNL1       -0.2710
      4 C          61.2591   88.2794    9.9586 C.3     1  UNL1        0.1258
      5 C          60.4331   89.3878    9.3762 C.3     1  UNL1        0.1637
      6 O          60.2829   90.6817   10.1201 O.3     1  UNL1       -0.3502
      7 C          60.9588   90.8671   11.4463 C.3     1  UNL1        0.1622
      8 C          61.7848   89.7588   12.0286 C.3     1  UNL1        0.1096
      9 C          62.8663   84.7281    7.3859 C.3     1  UNL1        0.0521
     10 C          62.9638   84.7484    8.8826 C.ar    1  UNL1        0.0596
     11 C          63.2115   83.4749    9.6354 C.ar    1  UNL1        0.0164
     12 C          63.3090   83.4952   11.1321 C.ar    1  UNL1        0.0238
     13 C          63.1588   84.7890   11.8760 C.ar    1  UNL1        0.1249
     14 C          62.9112   86.0625   11.1232 C.ar    1  UNL1        0.1535
     15 N          62.8137   86.0422    9.6265 N.ar    1  UNL1       -0.2435
     16 N          63.2563   84.8093   13.3727 N.ar    1  UNL1       -0.1462
     17 N          62.1081   84.7075   14.3325 N.ar    1  UNL1       -0.1446
     18 C          62.6613   84.7703   15.7254 C.ar    1  UNL1        0.1446
     19 C          64.1514   84.9109   15.6264 C.ar    1  UNL1        0.1446
     20 N          64.5191   84.9350   14.1724 N.ar    1  UNL1       -0.1446
     21 C          62.4607   89.9442   13.3548 C.3     1  UNL1        0.0488
     22 C          63.7943   90.6271   13.4280 C.ar    1  UNL1       -0.0189
     23 C          64.6468   90.4782   14.6531 C.ar    1  UNL1       -0.0041
     24 C          65.9804   91.1611   14.7263 C.ar    1  UNL1        0.0012
     25 C          66.4614   91.9928   13.5744 C.ar    1  UNL1        0.0191
     26 C          65.6087   92.1416   12.3492 C.ar    1  UNL1        0.0825
     27 C          64.2752   91.4588   12.2761 C.ar    1  UNL1        0.0149
     28 N          66.0897   92.9734   11.1973 N.ar    1  UNL1       -0.2282
     29 C          67.1907   92.6092   10.2459 C.ar    1  UNL1        0.1020
     30 C          67.3355   93.7260    9.2551 C.ar    1  UNL1        0.0431
     31 C          66.3240   94.7805    9.5941 C.ar    1  UNL1        0.1221
     32 N          65.5540   94.3154   10.7945 N.ar    1  UNL1       -0.1635
@<TRIPOS>BOND
     1     9    10    1
     2    10    11   ar
     3    11    12   ar
     4    12    13   ar
     5    13    16    1
     6    16    17   ar
     7    17    18   ar
     8    18    19   ar
     9    19    20   ar
    10    13    14   ar
    11    14     1    1
    12     1     2    2
    13     1     3   am
    14     3     4    1
    15     4     5    1
    16     5     6    1
    17     6     7    1
    18     7     8    1
    19     8    21    1
    20    21    22    1
    21    22    23   ar
    22    23    24   ar
    23    24    25   ar
    24    25    26   ar
    25    26    28    1
    26    28    29   ar
    27    29    30   ar
    28    30    31   ar
    29    31    32   ar
    30    26    27   ar
    31    14    15   ar
    32    15    10   ar
    33    20    16   ar
    34     8     3    1
    35    27    22   ar
    36    32    28   ar
@<TRIPOS>MOLECULE
*****
 32 36 0 0 0
SMALL
GASTEIGER

@<TRIPOS>ATOM
      1 C          63.4165   87.9724   13.2265 C.2     1  UNL1        0.2684
      2 O          63.6497   89.0695   12.2305 O.2     1  UNL1       -0.2682
      3 N          63.3556   88.2898   14.6912 N.am    1  UNL1       -0.2710
      4 C          63.1224   87.1927   15.6873 C.3     1  UNL1        0.1258
      5 C          63.0615   87.5101   17.1521 C.3     1  UNL1        0.1637
      6 O          63.2338   88.9245   17.6208 O.3     1  UNL1       -0.3502
      7 C          63.4670   90.0216   16.6248 C.3     1  UNL1        0.1622
      8 C          63.5279   89.7042   15.1600 C.3     1  UNL1        0.1096
      9 C          64.5604   82.9212   13.6477 C.3     1  UNL1        0.0521
     10 C          63.8162   84.0324   12.9684 C.ar    1  UNL1        0.0596
     11 C          62.8997   83.7291   11.8203 C.ar    1  UNL1        0.0164
     12 C          62.1555   84.8402   11.1410 C.ar    1  UNL1        0.0238
     13 C          62.3278   86.2547   11.6097 C.ar    1  UNL1        0.1249
     14 C          63.2442   86.5579   12.7577 C.ar    1  UNL1        0.1535
     15 N          63.9884   85.4468   13.4371 N.ar    1  UNL1       -0.2435
     16 N          61.5835   87.3658   10.9303 N.ar    1  UNL1       -0.1462
     17 N          60.4044   88.1069   11.4874 N.ar    1  UNL1       -0.1446
     18 C          59.9799   89.1301   10.4760 C.ar    1  UNL1        0.1446
     19 C          60.8967   89.0213    9.2938 C.ar    1  UNL1        0.1446
     20 N          61.8878   87.9309    9.5746 N.ar    1  UNL1       -0.1446
     21 C          63.7610   90.8013   14.1640 C.3     1  UNL1        0.0488
     22 C          65.1492   91.3189   13.9295 C.ar    1  UNL1       -0.0189
     23 C          66.1904   91.1850   15.0010 C.ar    1  UNL1       -0.0041
     24 C          67.5787   91.7026   14.7666 C.ar    1  UNL1        0.0012
     25 C          67.9257   92.3541   13.4607 C.ar    1  UNL1        0.0191
     26 C          66.8844   92.4879   12.3893 C.ar    1  UNL1        0.0825
     27 C          65.4962   91.9703   12.6237 C.ar    1  UNL1        0.0149
     28 N          67.2314   93.1393   11.0834 N.ar    1  UNL1       -0.2282
     29 C          67.8372   92.4585    9.8920 C.ar    1  UNL1        0.1020
     30 C          68.0137   93.4843    8.8119 C.ar    1  UNL1        0.0431
     31 C          67.5171   94.7991    9.3358 C.ar    1  UNL1        0.1221
     32 N          67.0336   94.5860   10.7397 N.ar    1  UNL1       -0.1635
@<TRIPOS>BOND
     1     9    10    1
     2    10    11   ar
     3    11    12   ar
     4    12    13   ar
     5    13    16    1
     6    16    17   ar
     7    17    18   ar
     8    18    19   ar
     9    19    20   ar
    10    13    14   ar
    11    14     1    1
    12     1     2    2
    13     1     3   am
    14     3     4    1
    15     4     5    1
    16     5     6    1
    17     6     7    1
    18     7     8    1
    19     8    21    1
    20    21    22    1
    21    22    23   ar
    22    23    24   ar
    23    24    25   ar
    24    25    26   ar
    25    26    28    1
    26    28    29   ar
    27    29    30   ar
    28    30    31   ar
    29    31    32   ar
    30    26    27   ar
    31    14    15   ar
    32    15    10   ar
    33    20    16   ar
    34     8     3    1
    35    27    22   ar
    36    32    28   ar
@<TRIPOS>MOLECULE
*****
 32 36 0 0 0
SMALL
GASTEIGER

@<TRIPOS>ATOM
      1 C          62.8603   88.9633   11.9985 C.2     1  UNL1        0.2684
      2 O          62.9305   87.7090   12.8182 O.2     1  UNL1       -0.2682
      3 N          61.8977   89.0571   10.8520 N.am    1  UNL1       -0.2710
      4 C          61.8276   90.3114   10.0323 C.3     1  UNL1        0.1258
      5 C          60.8649   90.4052    8.8857 C.3     1  UNL1        0.1637
      6 O          59.9724   89.2448    8.5589 O.3     1  UNL1       -0.3502
      7 C          60.0426   87.9905    9.3786 C.3     1  UNL1        0.1622
      8 C          61.0052   87.8967   10.5251 C.3     1  UNL1        0.1096
      9 C          65.4312   93.2241   10.5029 C.3     1  UNL1        0.0521
     10 C          65.0383   92.2541   11.5775 C.ar    1  UNL1        0.0596
     11 C          65.5378   92.4446   12.9790 C.ar    1  UNL1        0.0164
     12 C          65.1449   91.4747   14.0536 C.ar    1  UNL1        0.0238
     13 C          64.2524   90.3143   13.7268 C.ar    1  UNL1        0.1249
     14 C          63.7529   90.1238   12.3254 C.ar    1  UNL1        0.1535
     15 N          64.1458   91.0937   11.2507 N.ar    1  UNL1       -0.2435
     16 N          63.8595   89.3443   14.8014 N.ar    1  UNL1       -0.1462
     17 N          62.9032   89.6134   15.9253 N.ar    1  UNL1       -0.1446
     18 C          62.8065   88.3704   16.7594 C.ar    1  UNL1        0.1446
     19 C          63.7032   87.3331   16.1510 C.ar    1  UNL1        0.1446
     20 N          64.3539   87.9350   14.9409 N.ar    1  UNL1       -0.1446
     21 C          61.0753   86.6424   11.3448 C.3     1  UNL1        0.0488
     22 C          61.9605   85.5117   10.9113 C.ar    1  UNL1       -0.0189
     23 C          62.6519   85.5680    9.5814 C.ar    1  UNL1       -0.0041
     24 C          63.5372   84.4372    9.1479 C.ar    1  UNL1        0.0012
     25 C          63.7310   83.2503   10.0444 C.ar    1  UNL1        0.0191
     26 C          63.0395   83.1941   11.3744 C.ar    1  UNL1        0.0825
     27 C          62.1543   84.3248   11.8078 C.ar    1  UNL1        0.0149
     28 N          63.2333   82.0072   12.2708 N.ar    1  UNL1       -0.2282
     29 C          62.5271   80.6890   12.1536 C.ar    1  UNL1        0.1020
     30 C          63.0247   79.7972   13.2522 C.ar    1  UNL1        0.0431
     31 C          64.0384   80.5642   14.0485 C.ar    1  UNL1        0.1221
     32 N          64.1674   81.9300   13.4420 N.ar    1  UNL1       -0.1635
@<TRIPOS>BOND
     1     9    10    1
     2    10    11   ar
     3    11    12   ar
     4    12    13   ar
     5    13    16    1
     6    16    17   ar
     7    17    18   ar
     8    18    19   ar
     9    19    20   ar
    10    13    14   ar
    11    14     1    1
    12     1     2    2
    13     1     3   am
    14     3     4    1
    15     4     5    1
    16     5     6    1
    17     6     7    1
    18     7     8    1
    19     8    21    1
    20    21    22    1
    21    22    23   ar
    22    23    24   ar
    23    24    25   ar
    24    25    26   ar
    25    26    28    1
    26    28    29   ar
    27    29    30   ar
    28    30    31   ar
    29    31    32   ar
    30    26    27   ar
    31    14    15   ar
    32    15    10   ar
    33    20    16   ar
    34     8     3    1
    35    27    22   ar
    36    32    28   ar
