@<TRIPOS>MOLECULE
*****
 25 27 0 0 0
SMALL
GASTEIGER

@<TRIPOS>ATOM
      1 C          63.7008   87.6499   13.3372 C.ar    1  UNL1       -0.0223
      2 C          64.4608   88.1262   14.5394 C.ar    1  UNL1       -0.0012
      3 C          64.7455   89.5884   14.7159 C.ar    1  UNL1        0.0366
      4 C          64.2703   90.5741   13.6901 C.ar    1  UNL1        0.1385
      5 C          63.5103   90.0978   12.4878 C.ar    1  UNL1        0.0366
      6 C          63.2256   88.6357   12.3113 C.ar    1  UNL1       -0.0012
      7 C          62.8466   83.2635   12.8078 C.3     1  UNL1        0.0576
      8 C          62.4656   84.2370   11.7321 C.3     1  UNL1        0.0163
      9 C          62.7504   85.6991   11.9085 C.3     1  UNL1        0.0057
     10 C          63.4161   86.1878   13.1607 C.3     1  UNL1        0.0224
     11 C          63.7970   85.2143   14.2364 C.3     1  UNL1        0.0057
     12 C          63.5123   83.7522   14.0600 C.3     1  UNL1        0.0163
     13 C          61.8040   81.0522   13.6869 C.3     1  UNL1        0.0896
     14 N          62.5618   81.8014   12.6314 N.3     1  UNL1       -0.2716
     15 C          63.0349   81.0885   11.3993 C.3     1  UNL1        0.0896
     16 O          64.5550   92.0362   13.8665 O.3     1  UNL1       -0.4754
     17 C          65.8586   92.4800   14.4611 C.3     1  UNL1        0.2068
     18 C          66.6368   93.5899   13.8187 C.3     1  UNL1        0.0646
     19 C          66.2000   94.1434   12.4947 C.3     1  UNL1        0.0759
     20 N          66.9212   93.7460   11.2410 N.3     1  UNL1       -0.2726
     21 C          67.0983   94.7390   10.1307 C.3     1  UNL1        0.0721
     22 C          67.8195   94.3415    8.8770 C.3     1  UNL1        0.0174
     23 C          68.3636   92.9511    8.7334 C.3     1  UNL1        0.0029
     24 C          68.1866   91.9581    9.8437 C.3     1  UNL1        0.0174
     25 C          67.4654   92.3555   11.0974 C.3     1  UNL1        0.0721
@<TRIPOS>BOND
     1    13    14    1
     2    14    15    1
     3     7    14    1
     4     7     8    1
     5     8     9    1
     6     9    10    1
     7    10     1    1
     8     1     2   ar
     9     2     3   ar
    10     3     4   ar
    11     4    16    1
    12    16    17    1
    13    17    18    1
    14    18    19    1
    15    19    20    1
    16    20    21    1
    17    21    22    1
    18    22    23    1
    19    23    24    1
    20    24    25    1
    21     4     5   ar
    22     5     6   ar
    23    10    11    1
    24    11    12    1
    25    12     7    1
    26     6     1   ar
    27    25    20    1
@<TRIPOS>MOLECULE
*****
 25 27 0 0 0
SMALL
GASTEIGER

@<TRIPOS>ATOM
      1 C          64.4332   90.4701   14.4692 C.ar    1  UNL1       -0.0223
      2 C          63.7787   90.8780   15.7558 C.ar    1  UNL1       -0.0012
      3 C          63.2016   89.8357   16.6671 C.ar    1  UNL1        0.0366
      4 C          63.2788   88.3855   16.2918 C.ar    1  UNL1        0.1385
      5 C          63.9333   87.9776   15.0052 C.ar    1  UNL1        0.0366
      6 C          64.5105   89.0199   14.0940 C.ar    1  UNL1       -0.0012
      7 C          66.1648   93.5971   11.7354 C.3     1  UNL1        0.0576
      8 C          65.1450   92.6278   11.2154 C.3     1  UNL1        0.0163
      9 C          64.5678   91.5855   12.1267 C.3     1  UNL1        0.0057
     10 C          65.0104   91.5124   13.5580 C.3     1  UNL1        0.0224
     11 C          66.0302   92.4817   14.0780 C.3     1  UNL1        0.0057
     12 C          66.6074   93.5240   13.1668 C.3     1  UNL1        0.0163
     13 C          66.4443   96.0904   11.0608 C.3     1  UNL1        0.0896
     14 N          66.7420   94.6394   10.8242 N.3     1  UNL1       -0.2716
     15 C          67.6168   94.2308    9.6763 C.3     1  UNL1        0.0896
     16 O          62.7016   87.3431   17.2030 O.3     1  UNL1       -0.4754
     17 C          63.2363   85.9420   17.1736 C.3     1  UNL1        0.2068
     18 C          62.8522   85.0160   16.0578 C.3     1  UNL1        0.0646
     19 C          63.9140   84.2854   15.2903 C.3     1  UNL1        0.0759
     20 N          63.5309   83.3721   14.1638 N.3     1  UNL1       -0.2726
     21 C          62.4158   82.3853   14.3444 C.3     1  UNL1        0.0721
     22 C          62.0327   81.4720   13.2179 C.3     1  UNL1        0.0174
     23 C          62.7647   81.5455   11.9107 C.3     1  UNL1        0.0029
     24 C          63.8799   82.5324   11.7300 C.3     1  UNL1        0.0174
     25 C          64.2630   83.4457   12.8566 C.3     1  UNL1        0.0721
@<TRIPOS>BOND
     1    13    14    1
     2    14    15    1
     3     7    14    1
     4     7     8    1
     5     8     9    1
     6     9    10    1
     7    10     1    1
     8     1     2   ar
     9     2     3   ar
    10     3     4   ar
    11     4    16    1
    12    16    17    1
    13    17    18    1
    14    18    19    1
    15    19    20    1
    16    20    21    1
    17    21    22    1
    18    22    23    1
    19    23    24    1
    20    24    25    1
    21     4     5   ar
    22     5     6   ar
    23    10    11    1
    24    11    12    1
    25    12     7    1
    26     6     1   ar
    27    25    20    1
@<TRIPOS>MOLECULE
*****
 25 27 0 0 0
SMALL
GASTEIGER

@<TRIPOS>ATOM
      1 C          63.2020   89.3506   12.1651 C.ar    1  UNL1       -0.0223
      2 C          63.4582   90.8188   11.9957 C.ar    1  UNL1       -0.0012
      3 C          64.2398   91.5684   13.0335 C.ar    1  UNL1        0.0366
      4 C          64.7653   90.8498   14.2407 C.ar    1  UNL1        0.1385
      5 C          64.5092   89.3816   14.4101 C.ar    1  UNL1        0.0366
      6 C          63.7275   88.6320   13.3723 C.ar    1  UNL1       -0.0012
      7 C          60.8570   87.1018    9.0516 C.3     1  UNL1        0.0576
      8 C          60.8451   88.6017    9.0612 C.3     1  UNL1        0.0163
      9 C          61.6268   89.3513   10.0990 C.3     1  UNL1        0.0057
     10 C          62.4203   88.6010   11.1272 C.3     1  UNL1        0.0224
     11 C          62.4322   87.1011   11.1176 C.3     1  UNL1        0.0057
     12 C          61.6505   86.3515   10.0798 C.3     1  UNL1        0.0163
     13 C          60.7303   85.2540    7.2296 C.3     1  UNL1        0.0896
     14 N          60.0753   86.3522    8.0137 N.3     1  UNL1       -0.2716
     15 C          58.6387   86.7008    7.7600 C.3     1  UNL1        0.0896
     16 O          65.5470   91.5994   15.2786 O.3     1  UNL1       -0.4754
     17 C          66.9360   92.0758   14.9724 C.3     1  UNL1        0.2068
     18 C          67.1480   93.4355   14.3757 C.3     1  UNL1        0.0646
     19 C          66.3468   93.8641   13.1821 C.3     1  UNL1        0.0759
     20 N          66.9052   93.6871   11.8012 N.3     1  UNL1       -0.2726
     21 C          67.4794   92.3644   11.3883 C.3     1  UNL1        0.0721
     22 C          68.0378   92.1874   10.0074 C.3     1  UNL1        0.0174
     23 C          68.0219   93.3331    9.0394 C.3     1  UNL1        0.0029
     24 C          67.4476   94.6559    9.4523 C.3     1  UNL1        0.0174
     25 C          66.8893   94.8329   10.8332 C.3     1  UNL1        0.0721
@<TRIPOS>BOND
     1    13    14    1
     2    14    15    1
     3     7    14    1
     4     7     8    1
     5     8     9    1
     6     9    10    1
     7    10     1    1
     8     1     2   ar
     9     2     3   ar
    10     3     4   ar
    11     4    16    1
    12    16    17    1
    13    17    18    1
    14    18    19    1
    15    19    20    1
    16    20    21    1
    17    21    22    1
    18    22    23    1
    19    23    24    1
    20    24    25    1
    21     4     5   ar
    22     5     6   ar
    23    10    11    1
    24    11    12    1
    25    12     7    1
    26     6     1   ar
    27    25    20    1
@<TRIPOS>MOLECULE
*****
 25 27 0 0 0
SMALL
GASTEIGER

@<TRIPOS>ATOM
      1 C          63.6638   87.2039   13.3277 C.ar    1  UNL1       -0.0223
      2 C          64.3702   87.6699   14.5662 C.ar    1  UNL1       -0.0012
      3 C          64.5880   89.1356   14.7988 C.ar    1  UNL1        0.0366
      4 C          64.0995   90.1354   13.7929 C.ar    1  UNL1        0.1385
      5 C          63.3932   89.6694   12.5544 C.ar    1  UNL1        0.0366
      6 C          63.1753   88.2036   12.3218 C.ar    1  UNL1       -0.0012
      7 C          63.0103   82.8066   12.6298 C.3     1  UNL1        0.0576
      8 C          63.6616   83.2763   13.8967 C.3     1  UNL1        0.0163
      9 C          63.8794   84.7420   14.1294 C.3     1  UNL1        0.0057
     10 C          63.4460   85.7381   13.0950 C.3     1  UNL1        0.0224
     11 C          62.7947   85.2685   11.8281 C.3     1  UNL1        0.0057
     12 C          62.5769   83.8027   11.5955 C.3     1  UNL1        0.0163
     13 C          63.0014   80.7592   11.0304 C.3     1  UNL1        0.0896
     14 N          62.7925   81.3409   12.3971 N.3     1  UNL1       -0.2716
     15 C          62.3657   80.4568   13.5312 C.3     1  UNL1        0.0896
     16 O          64.3173   91.6011   14.0256 O.3     1  UNL1       -0.4754
     17 C          65.7110   92.1420   14.1485 C.3     1  UNL1        0.2068
     18 C          66.1674   93.2507   13.2471 C.3     1  UNL1        0.0646
     19 C          66.6912   92.9360   11.8772 C.3     1  UNL1        0.0759
     20 N          66.8737   94.0354   10.8732 N.3     1  UNL1       -0.2726
     21 C          66.4418   95.4331   11.2047 C.3     1  UNL1        0.0721
     22 C          66.6243   96.5325   10.2006 C.3     1  UNL1        0.0174
     23 C          67.2386   96.2342    8.8652 C.3     1  UNL1        0.0029
     24 C          67.6705   94.8365    8.5336 C.3     1  UNL1        0.0174
     25 C          67.4881   93.7371    9.5376 C.3     1  UNL1        0.0721
@<TRIPOS>BOND
     1    13    14    1
     2    14    15    1
     3     7    14    1
     4     7     8    1
     5     8     9    1
     6     9    10    1
     7    10     1    1
     8     1     2   ar
     9     2     3   ar
    10     3     4   ar
    11     4    16    1
    12    16    17    1
    13    17    18    1
    14    18    19    1
    15    19    20    1
    16    20    21    1
    17    21    22    1
    18    22    23    1
    19    23    24    1
    20    24    25    1
    21     4     5   ar
    22     5     6   ar
    23    10    11    1
    24    11    12    1
    25    12     7    1
    26     6     1   ar
    27    25    20    1
@<TRIPOS>MOLECULE
*****
 25 27 0 0 0
SMALL
GASTEIGER

@<TRIPOS>ATOM
      1 C          63.4124   90.7992   11.8690 C.ar    1  UNL1       -0.0223
      2 C          62.3481   90.0650   12.6293 C.ar    1  UNL1       -0.0012
      3 C          61.1377   89.5448   11.9122 C.ar    1  UNL1        0.0366
      4 C          60.9916   89.7587   10.4348 C.ar    1  UNL1        0.1385
      5 C          62.0559   90.4929    9.6745 C.ar    1  UNL1        0.0366
      6 C          63.2663   91.0132   10.3916 C.ar    1  UNL1       -0.0012
      7 C          67.0436   92.3600   14.0203 C.3     1  UNL1        0.0576
      8 C          66.2144   91.2740   14.6391 C.3     1  UNL1        0.0163
      9 C          65.0039   90.7538   13.9220 C.3     1  UNL1        0.0057
     10 C          64.6228   91.3195   12.5861 C.3     1  UNL1        0.0224
     11 C          65.4521   92.4055   11.9673 C.3     1  UNL1        0.0057
     12 C          66.6625   92.9257   12.6844 C.3     1  UNL1        0.0163
     13 C          68.0950   93.8470   15.8732 C.3     1  UNL1        0.0896
     14 N          68.2540   92.8803   14.7374 N.3     1  UNL1       -0.2716
     15 C          69.6234   92.4338   14.3188 C.3     1  UNL1        0.0896
     16 O          59.7812   89.2385    9.7177 O.3     1  UNL1       -0.4754
     17 C          59.9215   88.1318    8.7149 C.3     1  UNL1        0.2068
     18 C          60.4161   86.7841    9.1496 C.3     1  UNL1        0.0646
     19 C          61.8628   86.4257    8.9801 C.3     1  UNL1        0.0759
     20 N          62.4874   85.3888    9.8660 N.3     1  UNL1       -0.2726
     21 C          62.2029   85.3907   11.3387 C.3     1  UNL1        0.0721
     22 C          62.8274   84.3538   12.2246 C.3     1  UNL1        0.0174
     23 C          63.7364   83.3149   11.6377 C.3     1  UNL1        0.0029
     24 C          64.0208   83.3129   10.1649 C.3     1  UNL1        0.0174
     25 C          63.3963   84.3498    9.2790 C.3     1  UNL1        0.0721
@<TRIPOS>BOND
     1    13    14    1
     2    14    15    1
     3     7    14    1
     4     7     8    1
     5     8     9    1
     6     9    10    1
     7    10     1    1
     8     1     2   ar
     9     2     3   ar
    10     3     4   ar
    11     4    16    1
    12    16    17    1
    13    17    18    1
    14    18    19    1
    15    19    20    1
    16    20    21    1
    17    21    22    1
    18    22    23    1
    19    23    24    1
    20    24    25    1
    21     4     5   ar
    22     5     6   ar
    23    10    11    1
    24    11    12    1
    25    12     7    1
    26     6     1   ar
    27    25    20    1
@<TRIPOS>MOLECULE
*****
 25 27 0 0 0
SMALL
GASTEIGER

@<TRIPOS>ATOM
      1 C          61.0388   86.8460    9.2539 C.ar    1  UNL1       -0.0223
      2 C          60.1864   86.2659    8.1645 C.ar    1  UNL1       -0.0012
      3 C          59.4083   87.1727    7.2576 C.ar    1  UNL1        0.0366
      4 C          59.4826   88.6596    7.4402 C.ar    1  UNL1        0.1385
      5 C          60.3350   89.2398    8.5296 C.ar    1  UNL1        0.0366
      6 C          61.1130   88.3330    9.4365 C.ar    1  UNL1       -0.0012
      7 C          63.3730   84.1257   11.9743 C.3     1  UNL1        0.0576
      8 C          62.4326   85.1399   12.5548 C.3     1  UNL1        0.0163
      9 C          61.6546   86.0467   11.6480 C.3     1  UNL1        0.0057
     10 C          61.8169   85.9392   10.1607 C.3     1  UNL1        0.0224
     11 C          62.7572   84.9250    9.5802 C.3     1  UNL1        0.0057
     12 C          63.5353   84.0182   10.4870 C.3     1  UNL1        0.0163
     13 C          64.7356   83.7535   14.1549 C.3     1  UNL1        0.0896
     14 N          64.1511   83.2189   12.8811 N.3     1  UNL1       -0.2716
     15 C          64.3447   81.7774   12.5142 C.3     1  UNL1        0.0896
     16 O          58.7045   89.5664    6.5334 O.3     1  UNL1       -0.4754
     17 C          59.4249   90.4548    5.5630 C.3     1  UNL1        0.2068
     18 C          58.6678   91.4996    4.7981 C.3     1  UNL1        0.0646
     19 C          59.3728   92.7310    4.3115 C.3     1  UNL1        0.0759
     20 N          60.1371   92.6972    3.0213 N.3     1  UNL1       -0.2726
     21 C          59.4387   92.9956    1.7278 C.3     1  UNL1        0.0721
     22 C          60.2030   92.9618    0.4376 C.3     1  UNL1        0.0174
     23 C          61.6658   92.6296    0.4409 C.3     1  UNL1        0.0029
     24 C          62.3642   92.3312    1.7344 C.3     1  UNL1        0.0174
     25 C          61.5999   92.3650    3.0246 C.3     1  UNL1        0.0721
@<TRIPOS>BOND
     1    13    14    1
     2    14    15    1
     3     7    14    1
     4     7     8    1
     5     8     9    1
     6     9    10    1
     7    10     1    1
     8     1     2   ar
     9     2     3   ar
    10     3     4   ar
    11     4    16    1
    12    16    17    1
    13    17    18    1
    14    18    19    1
    15    19    20    1
    16    20    21    1
    17    21    22    1
    18    22    23    1
    19    23    24    1
    20    24    25    1
    21     4     5   ar
    22     5     6   ar
    23    10    11    1
    24    11    12    1
    25    12     7    1
    26     6     1   ar
    27    25    20    1
@<TRIPOS>MOLECULE
*****
 25 27 0 0 0
SMALL
GASTEIGER

@<TRIPOS>ATOM
      1 C          62.8556   86.6396   11.9061 C.ar    1  UNL1       -0.0223
      2 C          63.4832   87.4581   12.9951 C.ar    1  UNL1       -0.0012
      3 C          63.5155   88.9538   12.8853 C.ar    1  UNL1        0.0366
      4 C          62.9202   89.6308   11.6865 C.ar    1  UNL1        0.1385
      5 C          62.2925   88.8122   10.5975 C.ar    1  UNL1        0.0366
      6 C          62.2602   87.3166   10.7073 C.ar    1  UNL1       -0.0012
      7 C          62.7586   82.1527   12.2355 C.3     1  UNL1        0.0576
      8 C          62.4974   82.9994   13.4458 C.3     1  UNL1        0.0163
      9 C          62.5298   84.4950   13.3360 C.3     1  UNL1        0.0057
     10 C          62.8232   85.1439   12.0159 C.3     1  UNL1        0.0224
     11 C          63.0844   84.2972   10.8056 C.3     1  UNL1        0.0057
     12 C          63.0521   82.8016   10.9154 C.3     1  UNL1        0.0163
     13 C          62.5026   80.0076   13.6788 C.3     1  UNL1        0.0896
     14 N          62.7263   80.6571   12.3453 N.3     1  UNL1       -0.2716
     15 C          62.9177   79.8109   11.1217 C.3     1  UNL1        0.0896
     16 O          62.9525   91.1264   11.5767 O.3     1  UNL1       -0.4754
     17 C          64.2625   91.8383   11.4121 C.3     1  UNL1        0.2068
     18 C          65.1225   92.1129   12.6099 C.3     1  UNL1        0.0646
     19 C          66.2766   93.0651   12.5021 C.3     1  UNL1        0.0759
     20 N          66.9109   93.3268   11.1683 N.3     1  UNL1       -0.2726
     21 C          67.7444   92.2658   10.5131 C.3     1  UNL1        0.0721
     22 C          68.3788   92.5275    9.1793 C.3     1  UNL1        0.0174
     23 C          68.1796   93.8502    8.5006 C.3     1  UNL1        0.0029
     24 C          67.3460   94.9114    9.1558 C.3     1  UNL1        0.0174
     25 C          66.7117   94.6497   10.4897 C.3     1  UNL1        0.0721
@<TRIPOS>BOND
     1    13    14    1
     2    14    15    1
     3     7    14    1
     4     7     8    1
     5     8     9    1
     6     9    10    1
     7    10     1    1
     8     1     2   ar
     9     2     3   ar
    10     3     4   ar
    11     4    16    1
    12    16    17    1
    13    17    18    1
    14    18    19    1
    15    19    20    1
    16    20    21    1
    17    21    22    1
    18    22    23    1
    19    23    24    1
    20    24    25    1
    21     4     5   ar
    22     5     6   ar
    23    10    11    1
    24    11    12    1
    25    12     7    1
    26     6     1   ar
    27    25    20    1
@<TRIPOS>MOLECULE
*****
 25 27 0 0 0
SMALL
GASTEIGER

@<TRIPOS>ATOM
      1 C          63.3719   86.3961   13.3575 C.ar    1  UNL1       -0.0223
      2 C          64.1395   86.9573   14.5176 C.ar    1  UNL1       -0.0012
      3 C          64.4740   88.4189   14.5589 C.ar    1  UNL1        0.0366
      4 C          64.0409   89.3193   13.4402 C.ar    1  UNL1        0.1385
      5 C          63.2733   88.7581   12.2801 C.ar    1  UNL1        0.0366
      6 C          62.9388   87.2965   12.2388 C.ar    1  UNL1       -0.0012
      7 C          62.3683   82.0111   13.2335 C.3     1  UNL1        0.0576
      8 C          62.2277   82.7768   14.5157 C.3     1  UNL1        0.0163
      9 C          62.5622   84.2384   14.5570 C.3     1  UNL1        0.0057
     10 C          63.0374   84.9344   13.3162 C.3     1  UNL1        0.0224
     11 C          63.1780   84.1688   12.0340 C.3     1  UNL1        0.0057
     12 C          62.8435   82.7072   11.9927 C.3     1  UNL1        0.0163
     13 C          61.0590   79.9751   14.1769 C.3     1  UNL1        0.0896
     14 N          62.0338   80.5495   13.1922 N.3     1  UNL1       -0.2716
     15 C          62.6741   79.6623   12.1662 C.3     1  UNL1        0.0896
     16 O          64.3754   90.7810   13.4815 O.3     1  UNL1       -0.4754
     17 C          63.9907   91.6711   12.3371 C.3     1  UNL1        0.2068
     18 C          65.0538   92.3086   11.4925 C.3     1  UNL1        0.0646
     19 C          65.9104   93.4001   12.0626 C.3     1  UNL1        0.0759
     20 N          66.8397   93.1060   13.2027 N.3     1  UNL1       -0.2726
     21 C          66.7673   93.9224   14.4590 C.3     1  UNL1        0.0721
     22 C          67.6966   93.6283   15.5991 C.3     1  UNL1        0.0174
     23 C          68.6982   92.5178   15.4830 C.3     1  UNL1        0.0029
     24 C          68.7706   91.7013   14.2267 C.3     1  UNL1        0.0174
     25 C          67.8413   91.9954   13.0866 C.3     1  UNL1        0.0721
@<TRIPOS>BOND
     1    13    14    1
     2    14    15    1
     3     7    14    1
     4     7     8    1
     5     8     9    1
     6     9    10    1
     7    10     1    1
     8     1     2   ar
     9     2     3   ar
    10     3     4   ar
    11     4    16    1
    12    16    17    1
    13    17    18    1
    14    18    19    1
    15    19    20    1
    16    20    21    1
    17    21    22    1
    18    22    23    1
    19    23    24    1
    20    24    25    1
    21     4     5   ar
    22     5     6   ar
    23    10    11    1
    24    11    12    1
    25    12     7    1
    26     6     1   ar
    27    25    20    1
@<TRIPOS>MOLECULE
*****
 25 27 0 0 0
SMALL
GASTEIGER

@<TRIPOS>ATOM
      1 C          64.8732   91.2884   12.9133 C.ar    1  UNL1       -0.0223
      2 C          65.5270   91.0477   14.2417 C.ar    1  UNL1       -0.0012
      3 C          65.1732   89.8294   15.0420 C.ar    1  UNL1        0.0366
      4 C          64.1656   88.8517   14.5139 C.ar    1  UNL1        0.1385
      5 C          63.5119   89.0924   13.1855 C.ar    1  UNL1        0.0366
      6 C          63.8657   90.3107   12.3852 C.ar    1  UNL1       -0.0012
      7 C          65.9347   94.9433   10.5123 C.3     1  UNL1        0.0576
      8 C          65.1592   93.8276    9.8768 C.3     1  UNL1        0.0163
      9 C          64.8054   92.6093   10.6771 C.3     1  UNL1        0.0057
     10 C          65.2270   92.5067   12.1130 C.3     1  UNL1        0.0224
     11 C          66.0025   93.6224   12.7485 C.3     1  UNL1        0.0057
     12 C          66.3563   94.8407   11.9481 C.3     1  UNL1        0.0163
     13 C          65.3300   96.6894    8.6860 C.3     1  UNL1        0.0896
     14 N          66.2885   96.1617    9.7120 N.3     1  UNL1       -0.2716
     15 C          67.6007   96.8522    9.9377 C.3     1  UNL1        0.0896
     16 O          63.8118   87.6334   15.3143 O.3     1  UNL1       -0.4754
     17 C          64.4011   86.3020   14.9537 C.3     1  UNL1        0.2068
     18 C          63.7730   85.0401   15.4666 C.3     1  UNL1        0.0646
     19 C          62.8096   84.2782   14.6055 C.3     1  UNL1        0.0759
     20 N          63.1386   84.0120   13.1665 N.3     1  UNL1       -0.2726
     21 C          64.0178   82.8533   12.8001 C.3     1  UNL1        0.0721
     22 C          64.3469   82.5870   11.3610 C.3     1  UNL1        0.0174
     23 C          63.7966   83.4795   10.2883 C.3     1  UNL1        0.0029
     24 C          62.9172   84.6382   10.6547 C.3     1  UNL1        0.0174
     25 C          62.5882   84.9045   12.0937 C.3     1  UNL1        0.0721
@<TRIPOS>BOND
     1    13    14    1
     2    14    15    1
     3     7    14    1
     4     7     8    1
     5     8     9    1
     6     9    10    1
     7    10     1    1
     8     1     2   ar
     9     2     3   ar
    10     3     4   ar
    11     4    16    1
    12    16    17    1
    13    17    18    1
    14    18    19    1
    15    19    20    1
    16    20    21    1
    17    21    22    1
    18    22    23    1
    19    23    24    1
    20    24    25    1
    21     4     5   ar
    22     5     6   ar
    23    10    11    1
    24    11    12    1
    25    12     7    1
    26     6     1   ar
    27    25    20    1
