@<TRIPOS>MOLECULE
*****
 30 33 0 0 0
SMALL
GASTEIGER

@<TRIPOS>ATOM
      1 C          59.6009   89.7034   12.6209 C.3     1  UNL1        0.0521
      2 C          60.0479   88.8472   11.4732 C.ar    1  UNL1        0.0612
      3 C          59.7468   89.2646   10.0643 C.ar    1  UNL1        0.0195
      4 C          60.1939   88.4085    8.9166 C.ar    1  UNL1        0.0603
      5 C          60.9420   87.1349    9.1778 C.ar    1  UNL1        0.0555
      6 C          61.5053   86.0945    8.2558 C.ar    1  UNL1        0.0824
      7 C          61.4321   86.1115    6.7577 C.3     1  UNL1        0.0540
      8 N          62.1545   85.0340    9.0948 N.ar    1  UNL1       -0.1681
      9 N          61.9925   85.4190   10.5355 N.ar    1  UNL1       -0.2125
     10 C          61.2431   86.7175   10.5868 C.ar    1  UNL1        0.1646
     11 N          60.7961   87.5737   11.7344 N.ar    1  UNL1       -0.2309
     12 C          62.4921   84.6421   11.7173 C.ar    1  UNL1        0.0844
     13 C          62.3818   83.1462   11.7324 C.ar    1  UNL1        0.0192
     14 C          62.8815   82.3694   12.9143 C.ar    1  UNL1        0.0015
     15 C          63.4913   83.0883   14.0810 C.ar    1  UNL1        0.0001
     16 C          63.6015   84.5842   14.0659 C.ar    1  UNL1        0.0015
     17 C          63.1019   85.3610   12.8840 C.ar    1  UNL1        0.0192
     18 C          59.8927   88.8259    7.5076 C.2     1  UNL1        0.2647
     19 O          58.9665   88.0021    6.6630 O.2     1  UNL1       -0.2684
     20 N          60.5178   90.0672    6.9433 N.am    1  UNL1       -0.2023
     21 H          61.1258   90.6079    7.4977 H       1  UNL1        0.1776
     22 N          60.2167   90.4846    5.5344 N.2     1  UNL1       -0.1773
     23 C          61.1035   91.4752    4.8399 C.2     1  UNL1        0.1176
     24 C          60.8023   91.8926    3.4310 C.ar    1  UNL1        0.0207
     25 C          61.8645   91.7947    2.3764 C.ar    1  UNL1        0.0021
     26 C          61.5633   92.2122    0.9674 C.ar    1  UNL1        0.0067
     27 C          60.1999   92.7275    0.6131 C.ar    1  UNL1        0.0346
     28 BR         59.8988   93.1449   -0.7958 Br      1  UNL1       -0.0490
     29 C          59.1377   92.8254    1.6677 C.ar    1  UNL1        0.0067
     30 C          59.4389   92.4079    3.0766 C.ar    1  UNL1        0.0021
@<TRIPOS>BOND
     1     1     2    1
     2     2     3   ar
     3     3     4   ar
     4     4    18    1
     5    18    19    2
     6    18    20   am
     7    20    22    1
     8    22    23    2
     9    23    24    1
    10    24    25   ar
    11    25    26   ar
    12    26    27   ar
    13    27    28    1
    14    27    29   ar
    15    29    30   ar
    16     4     5   ar
    17     5     6   ar
    18     6     7    1
    19     6     8   ar
    20     8     9   ar
    21     9    12    1
    22    12    13   ar
    23    13    14   ar
    24    14    15   ar
    25    15    16   ar
    26    16    17   ar
    27     9    10   ar
    28    10    11   ar
    29    11     2   ar
    30    30    24   ar
    31    10     5   ar
    32    17    12   ar
    33    20    21    1
@<TRIPOS>MOLECULE
*****
 30 33 0 0 0
SMALL
GASTEIGER

@<TRIPOS>ATOM
      1 C          64.1275   88.4814   14.8055 C.3     1  UNL1        0.0521
      2 C          63.5432   87.9412   13.5340 C.ar    1  UNL1        0.0612
      3 C          63.1760   88.8767   12.4205 C.ar    1  UNL1        0.0195
      4 C          62.5916   88.3365   11.1490 C.ar    1  UNL1        0.0603
      5 C          62.3746   86.8608   10.9910 C.ar    1  UNL1        0.0555
      6 C          61.8211   86.0429    9.8620 C.ar    1  UNL1        0.0824
      7 C          61.3288   86.5730    8.5480 C.3     1  UNL1        0.0540
      8 N          61.8463   84.6018   10.2777 N.ar    1  UNL1       -0.1681
      9 N          62.4153   84.5291   11.6636 N.ar    1  UNL1       -0.2125
     10 C          62.7419   85.9253   12.1044 C.ar    1  UNL1        0.1646
     11 N          63.3262   86.4655   13.3760 N.ar    1  UNL1       -0.2309
     12 C          62.6217   83.2797   12.4676 C.ar    1  UNL1        0.0844
     13 C          62.7210   81.9516   11.7774 C.ar    1  UNL1        0.0192
     14 C          62.9274   80.7023   12.5815 C.ar    1  UNL1        0.0015
     15 C          63.0343   80.7809   14.0756 C.ar    1  UNL1        0.0001
     16 C          62.9350   82.1090   14.7657 C.ar    1  UNL1        0.0015
     17 C          62.7287   83.3584   13.9617 C.ar    1  UNL1        0.0192
     18 C          62.2244   89.2721   10.0355 C.2     1  UNL1        0.2647
     19 O          63.1804   90.3484    9.6142 O.2     1  UNL1       -0.2684
     20 N          60.9011   89.1314    9.3434 N.am    1  UNL1       -0.2023
     21 H          60.2736   88.4250    9.6200 H       1  UNL1        0.1776
     22 N          60.5338   90.0670    8.2299 N.2     1  UNL1       -0.1773
     23 C          60.4224   89.5537    6.8249 C.2     1  UNL1        0.1176
     24 C          60.0551   90.4893    5.7115 C.ar    1  UNL1        0.0207
     25 C          61.1209   91.0347    4.8079 C.ar    1  UNL1        0.0021
     26 C          60.7536   91.9703    3.6944 C.ar    1  UNL1        0.0067
     27 C          59.3205   92.3605    3.4847 C.ar    1  UNL1        0.0346
     28 BR         58.9533   93.2961    2.3712 Br      1  UNL1       -0.0490
     29 C          58.2547   91.8151    4.3883 C.ar    1  UNL1        0.0067
     30 C          58.6220   90.8795    5.5017 C.ar    1  UNL1        0.0021
@<TRIPOS>BOND
     1     1     2    1
     2     2     3   ar
     3     3     4   ar
     4     4    18    1
     5    18    19    2
     6    18    20   am
     7    20    22    1
     8    22    23    2
     9    23    24    1
    10    24    25   ar
    11    25    26   ar
    12    26    27   ar
    13    27    28    1
    14    27    29   ar
    15    29    30   ar
    16     4     5   ar
    17     5     6   ar
    18     6     7    1
    19     6     8   ar
    20     8     9   ar
    21     9    12    1
    22    12    13   ar
    23    13    14   ar
    24    14    15   ar
    25    15    16   ar
    26    16    17   ar
    27     9    10   ar
    28    10    11   ar
    29    11     2   ar
    30    30    24   ar
    31    10     5   ar
    32    17    12   ar
    33    20    21    1
@<TRIPOS>MOLECULE
*****
 30 33 0 0 0
SMALL
GASTEIGER

@<TRIPOS>ATOM
      1 C          61.4279   90.8423   10.2043 C.3     1  UNL1        0.0521
      2 C          62.0865   89.8032   11.0626 C.ar    1  UNL1        0.0612
      3 C          61.9484   88.3496   10.7194 C.ar    1  UNL1        0.0195
      4 C          62.6069   87.3105   11.5776 C.ar    1  UNL1        0.0603
      5 C          63.4036   87.7250   12.7790 C.ar    1  UNL1        0.0555
      6 C          64.1600   86.9329   13.8039 C.ar    1  UNL1        0.0824
      7 C          64.2883   85.4389   13.8449 C.3     1  UNL1        0.0540
      8 N          64.7656   87.8970   14.7805 N.ar    1  UNL1       -0.1681
      9 N          64.3835   89.2849   14.3592 N.ar    1  UNL1       -0.2125
     10 C          63.5417   89.1786   13.1222 C.ar    1  UNL1        0.1646
     11 N          62.8832   90.2177   12.2640 N.ar    1  UNL1       -0.2309
     12 C          64.7745   90.5560   15.0531 C.ar    1  UNL1        0.0844
     13 C          63.9520   91.0693   16.1976 C.ar    1  UNL1        0.0192
     14 C          64.3431   92.3404   16.8914 C.ar    1  UNL1        0.0015
     15 C          65.5566   93.0982   16.4407 C.ar    1  UNL1        0.0001
     16 C          66.3791   92.5849   15.2961 C.ar    1  UNL1        0.0015
     17 C          65.9880   91.3138   14.6023 C.ar    1  UNL1        0.0192
     18 C          62.4688   85.8568   11.2343 C.2     1  UNL1        0.2647
     19 O          62.7078   85.3922    9.8283 O.2     1  UNL1       -0.2684
     20 N          62.0916   84.8677   12.2971 N.am    1  UNL1       -0.2023
     21 H          61.9348   85.1727   13.2200 H       1  UNL1        0.1776
     22 N          61.9535   83.4140   11.9539 N.2     1  UNL1       -0.1773
     23 C          63.1755   82.5528   11.8320 C.2     1  UNL1        0.1176
     24 C          63.0373   81.0992   11.4887 C.ar    1  UNL1        0.0207
     25 C          62.7228   80.1013   12.5636 C.ar    1  UNL1        0.0021
     26 C          62.5846   78.6476   12.2204 C.ar    1  UNL1        0.0067
     27 C          62.7609   78.1919   10.8022 C.ar    1  UNL1        0.0346
     28 BR         62.6227   76.7383   10.4590 Br      1  UNL1       -0.0490
     29 C          63.0754   79.1897    9.7273 C.ar    1  UNL1        0.0067
     30 C          63.2136   80.6433   10.0705 C.ar    1  UNL1        0.0021
@<TRIPOS>BOND
     1     1     2    1
     2     2     3   ar
     3     3     4   ar
     4     4    18    1
     5    18    19    2
     6    18    20   am
     7    20    22    1
     8    22    23    2
     9    23    24    1
    10    24    25   ar
    11    25    26   ar
    12    26    27   ar
    13    27    28    1
    14    27    29   ar
    15    29    30   ar
    16     4     5   ar
    17     5     6   ar
    18     6     7    1
    19     6     8   ar
    20     8     9   ar
    21     9    12    1
    22    12    13   ar
    23    13    14   ar
    24    14    15   ar
    25    15    16   ar
    26    16    17   ar
    27     9    10   ar
    28    10    11   ar
    29    11     2   ar
    30    30    24   ar
    31    10     5   ar
    32    17    12   ar
    33    20    21    1
@<TRIPOS>MOLECULE
*****
 30 33 0 0 0
SMALL
GASTEIGER

@<TRIPOS>ATOM
      1 C          63.0202   91.8277    9.5144 C.3     1  UNL1        0.0521
      2 C          63.3103   90.9574   10.7012 C.ar    1  UNL1        0.0612
      3 C          62.6858   89.5975   10.8045 C.ar    1  UNL1        0.0195
      4 C          62.9758   88.7272   11.9913 C.ar    1  UNL1        0.0603
      5 C          63.8904   89.2167   13.0747 C.ar    1  UNL1        0.0555
      6 C          64.3590   88.5874   14.3531 C.ar    1  UNL1        0.0824
      7 C          63.9799   87.2262   14.8564 C.3     1  UNL1        0.0540
      8 N          65.2731   89.5584   15.0399 N.ar    1  UNL1       -0.1681
      9 N          65.3695   90.7877   14.1860 N.ar    1  UNL1       -0.2125
     10 C          64.5150   90.5766   12.9713 C.ar    1  UNL1        0.1646
     11 N          64.2249   91.4469   11.7846 N.ar    1  UNL1       -0.2309
     12 C          66.1784   92.0131   14.4927 C.ar    1  UNL1        0.0844
     13 C          67.0889   92.0318   15.6847 C.ar    1  UNL1        0.0192
     14 C          67.8977   93.2572   15.9913 C.ar    1  UNL1        0.0015
     15 C          67.7962   94.4639   15.1060 C.ar    1  UNL1        0.0001
     16 C          66.8858   94.4452   13.9141 C.ar    1  UNL1        0.0015
     17 C          66.0769   93.2198   13.6074 C.ar    1  UNL1        0.0192
     18 C          62.3512   87.3673   12.0946 C.2     1  UNL1        0.2647
     19 O          60.8861   87.1925   11.8248 O.2     1  UNL1       -0.2684
     20 N          63.1918   86.1823   12.4676 N.am    1  UNL1       -0.2023
     21 H          64.1534   86.2970   12.6446 H       1  UNL1        0.1776
     22 N          62.5672   84.8224   12.5709 N.2     1  UNL1       -0.1773
     23 C          63.2872   83.7188   13.2876 C.2     1  UNL1        0.1176
     24 C          62.6626   82.3590   13.3908 C.ar    1  UNL1        0.0207
     25 C          61.4427   82.1565   14.2399 C.ar    1  UNL1        0.0021
     26 C          60.8181   80.7966   14.3431 C.ar    1  UNL1        0.0067
     27 C          61.4134   79.6393   13.5974 C.ar    1  UNL1        0.0346
     28 BR         60.7888   78.2795   13.7006 Br      1  UNL1       -0.0490
     29 C          62.6333   79.8418   12.7483 C.ar    1  UNL1        0.0067
     30 C          63.2579   81.2016   12.6451 C.ar    1  UNL1        0.0021
@<TRIPOS>BOND
     1     1     2    1
     2     2     3   ar
     3     3     4   ar
     4     4    18    1
     5    18    19    2
     6    18    20   am
     7    20    22    1
     8    22    23    2
     9    23    24    1
    10    24    25   ar
    11    25    26   ar
    12    26    27   ar
    13    27    28    1
    14    27    29   ar
    15    29    30   ar
    16     4     5   ar
    17     5     6   ar
    18     6     7    1
    19     6     8   ar
    20     8     9   ar
    21     9    12    1
    22    12    13   ar
    23    13    14   ar
    24    14    15   ar
    25    15    16   ar
    26    16    17   ar
    27     9    10   ar
    28    10    11   ar
    29    11     2   ar
    30    30    24   ar
    31    10     5   ar
    32    17    12   ar
    33    20    21    1
