@<TRIPOS>MOLECULE
*****
 25 28 0 0 0
SMALL
GASTEIGER

@<TRIPOS>ATOM
      1 C          64.4389   90.8406   13.4381 C.2     1  UNL1        0.3580
      2 N          65.0084   91.6107   12.2837 N.2     1  UNL1       -0.0039
      3 C          65.9369   92.7616   12.5351 C.2     1  UNL1        0.3159
      4 C          66.2958   93.1424   13.9409 C.3     1  UNL1        0.2333
      5 C          65.7263   92.3722   15.0952 C.2     1  UNL1        0.3644
      6 O          66.0853   92.7531   16.5010 O.2     1  UNL1       -0.2422
      7 N          64.7978   91.2213   14.8438 N.am    1  UNL1        0.0289
      8 N          66.5065   93.5318   11.3808 N.pl3   1  UNL1       -0.1888
      9 C          67.2965   92.8213   10.3220 C.3     1  UNL1        0.2343
     10 C          67.8660   93.5914    9.1677 C.3     1  UNL1        0.1929
     11 O          67.6456   95.0720    9.0721 O.3     1  UNL1       -0.3449
     12 C          66.8555   95.7826   10.1310 C.3     1  UNL1        0.1929
     13 C          66.2860   95.0124   11.2853 C.3     1  UNL1        0.2343
     14 C          63.5104   89.6896   13.1866 C.3     1  UNL1        0.2068
     15 O          62.1237   90.9954   11.4198 O.2     1  UNL1       -0.2739
     16 C          62.6183   89.6952   11.9807 C.2     1  UNL1        0.2419
     17 N          62.2208   88.4006   11.3358 N.am    1  UNL1       -0.2581
     18 C          62.6349   87.0296   11.7820 C.3     1  UNL1        0.1029
     19 C          62.0094   86.0314   10.8534 C.3     1  UNL1        0.0495
     20 C          61.2089   86.7853    9.8333 C.ar    1  UNL1       -0.0068
     21 C          60.3778   86.3277    8.6714 C.ar    1  UNL1       -0.0030
     22 C          59.6774   87.3343    7.8077 C.ar    1  UNL1       -0.0002
     23 C          59.8080   88.7986    8.1059 C.ar    1  UNL1        0.0013
     24 C          60.6391   89.2562    9.2677 C.ar    1  UNL1        0.0146
     25 C          61.3395   88.2496   10.1314 C.ar    1  UNL1        0.0499
@<TRIPOS>BOND
     1    15    16    2
     2    16    14    1
     3    14     1    1
     4     1     2    1
     5     2     3    2
     6     3     8    1
     7     8     9    1
     8     9    10    1
     9    10    11    1
    10    11    12    1
    11    12    13    1
    12     3     4    1
    13     4     5    1
    14     5     6    2
    15     5     7    1
    16    16    17   am
    17    17    18    1
    18    18    19    1
    19    19    20    1
    20    20    21   ar
    21    21    22   ar
    22    22    23   ar
    23    23    24   ar
    24    24    25   ar
    25     7     1    2
    26    25    17    1
    27    13     8    1
    28    25    20   ar
@<TRIPOS>MOLECULE
*****
 25 28 0 0 0
SMALL
GASTEIGER

@<TRIPOS>ATOM
      1 C          62.2203   87.8223   11.0674 C.2     1  UNL1        0.3580
      2 N          62.5469   86.8010   12.1163 N.2     1  UNL1       -0.0039
      3 C          62.7224   85.3615   11.7326 C.2     1  UNL1        0.3159
      4 C          62.5712   84.9435   10.3000 C.3     1  UNL1        0.2333
      5 C          62.2446   85.9649    9.2511 C.2     1  UNL1        0.3644
      6 O          62.0934   85.5467    7.8184 O.2     1  UNL1       -0.2422
      7 N          62.0691   87.4043    9.6348 N.am    1  UNL1        0.0289
      8 N          63.0490   84.3402   12.7815 N.pl3   1  UNL1       -0.1888
      9 C          62.6907   82.9001   12.5633 C.3     1  UNL1        0.2343
     10 C          63.0173   81.8787   13.6121 C.3     1  UNL1        0.1929
     11 O          63.7023   82.2975   14.8792 O.3     1  UNL1       -0.3449
     12 C          64.0606   83.7377   15.0974 C.3     1  UNL1        0.1929
     13 C          63.7339   84.7591   14.0485 C.3     1  UNL1        0.2343
     14 C          62.0448   89.2618   11.4511 C.3     1  UNL1        0.2068
     15 O          62.8904   89.3723   13.9052 O.2     1  UNL1       -0.2739
     16 C          62.9341   89.8742   12.4924 C.2     1  UNL1        0.2419
     17 N          63.8669   90.9885   12.1208 N.am    1  UNL1       -0.2581
     18 C          64.0202   91.5918   10.7560 C.3     1  UNL1        0.1029
     19 C          65.0583   92.6713   10.8405 C.3     1  UNL1        0.0495
     20 C          65.5466   92.7351   12.2574 C.ar    1  UNL1       -0.0068
     21 C          66.5665   93.6059   12.9293 C.ar    1  UNL1       -0.0030
     22 C          66.8501   93.4366   14.3924 C.ar    1  UNL1       -0.0002
     23 C          66.1138   92.3965   15.1837 C.ar    1  UNL1        0.0013
     24 C          65.0939   91.5258   14.5118 C.ar    1  UNL1        0.0146
     25 C          64.8103   91.6951   13.0486 C.ar    1  UNL1        0.0499
@<TRIPOS>BOND
     1    15    16    2
     2    16    14    1
     3    14     1    1
     4     1     2    1
     5     2     3    2
     6     3     8    1
     7     8     9    1
     8     9    10    1
     9    10    11    1
    10    11    12    1
    11    12    13    1
    12     3     4    1
    13     4     5    1
    14     5     6    2
    15     5     7    1
    16    16    17   am
    17    17    18    1
    18    18    19    1
    19    19    20    1
    20    20    21   ar
    21    21    22   ar
    22    22    23   ar
    23    23    24   ar
    24    24    25   ar
    25     7     1    2
    26    25    17    1
    27    13     8    1
    28    25    20   ar
@<TRIPOS>MOLECULE
*****
 25 28 0 0 0
SMALL
GASTEIGER

@<TRIPOS>ATOM
      1 C          64.2678   91.2792   13.6523 C.2     1  UNL1        0.3580
      2 N          64.8576   91.7606   12.3598 N.2     1  UNL1       -0.0039
      3 C          66.1186   92.5729   12.3674 C.2     1  UNL1        0.3159
      4 C          66.7898   92.9037   13.6674 C.3     1  UNL1        0.2333
      5 C          66.2000   92.4222   14.9598 C.2     1  UNL1        0.3644
      6 O          66.8713   92.7531   16.2599 O.2     1  UNL1       -0.2422
      7 N          64.9390   91.6100   14.9523 N.am    1  UNL1        0.0289
      8 N          66.7084   93.0543   11.0749 N.pl3   1  UNL1       -0.1888
      9 C          67.7439   92.2294   10.3698 C.3     1  UNL1        0.2343
     10 C          68.3337   92.7109    9.0774 C.3     1  UNL1        0.1929
     11 O          67.8879   94.0172    8.4901 O.3     1  UNL1       -0.3449
     12 C          66.8523   94.8421    9.1953 C.3     1  UNL1        0.1929
     13 C          66.2625   94.3607   10.4877 C.3     1  UNL1        0.2343
     14 C          63.0068   90.4669   13.6447 C.3     1  UNL1        0.2068
     15 O          63.7472   88.0642   12.9901 O.2     1  UNL1       -0.2739
     16 C          62.8903   89.2710   12.7467 C.2     1  UNL1        0.2419
     17 N          61.9169   89.2820   11.6055 N.am    1  UNL1       -0.2581
     18 C          60.9989   90.4107   11.2405 C.3     1  UNL1        0.1029
     19 C          60.2053   89.9924   10.0383 C.3     1  UNL1        0.0495
     20 C          60.6328   88.6052    9.6604 C.ar    1  UNL1       -0.0068
     21 C          60.1955   87.6851    8.5594 C.ar    1  UNL1       -0.0030
     22 C          60.8161   86.3259    8.4270 C.ar    1  UNL1       -0.0002
     23 C          61.8739   85.8869    9.3956 C.ar    1  UNL1        0.0013
     24 C          62.3112   86.8069   10.4966 C.ar    1  UNL1        0.0146
     25 C          61.6907   88.1661   10.6289 C.ar    1  UNL1        0.0499
@<TRIPOS>BOND
     1    15    16    2
     2    16    14    1
     3    14     1    1
     4     1     2    1
     5     2     3    2
     6     3     8    1
     7     8     9    1
     8     9    10    1
     9    10    11    1
    10    11    12    1
    11    12    13    1
    12     3     4    1
    13     4     5    1
    14     5     6    2
    15     5     7    1
    16    16    17   am
    17    17    18    1
    18    18    19    1
    19    19    20    1
    20    20    21   ar
    21    21    22   ar
    22    22    23   ar
    23    23    24   ar
    24    24    25   ar
    25     7     1    2
    26    25    17    1
    27    13     8    1
    28    25    20   ar
@<TRIPOS>MOLECULE
*****
 25 28 0 0 0
SMALL
GASTEIGER

@<TRIPOS>ATOM
      1 C          62.0106   87.7740   10.8733 C.2     1  UNL1        0.3580
      2 N          62.3403   86.8425   12.0017 N.2     1  UNL1       -0.0039
      3 C          62.7061   85.4164   11.7146 C.2     1  UNL1        0.3159
      4 C          62.7421   84.9219   10.2989 C.3     1  UNL1        0.2333
      5 C          62.4124   85.8535    9.1704 C.2     1  UNL1        0.3644
      6 O          62.4485   85.3589    7.7547 O.2     1  UNL1       -0.2422
      7 N          62.0467   87.2796    9.4576 N.am    1  UNL1        0.0289
      8 N          63.0358   84.4848   12.8430 N.pl3   1  UNL1       -0.1888
      9 C          63.7033   85.0107   14.0791 C.3     1  UNL1        0.2343
     10 C          64.0330   84.0792   15.2075 C.3     1  UNL1        0.1929
     11 O          63.6952   82.6217   15.1000 O.3     1  UNL1       -0.3449
     12 C          63.0277   82.0957   13.8638 C.3     1  UNL1        0.1929
     13 C          62.6980   83.0273   12.7354 C.3     1  UNL1        0.2343
     14 C          61.6449   89.2001   11.1605 C.3     1  UNL1        0.2068
     15 O          62.9963   91.0837    9.9875 O.2     1  UNL1       -0.2739
     16 C          62.7117   90.2538   11.2041 C.2     1  UNL1        0.2419
     17 N          63.4938   90.4775   12.4644 N.am    1  UNL1       -0.2581
     18 C          63.3223   89.7292   13.7530 C.3     1  UNL1        0.1029
     19 C          64.3072   90.2781   14.7423 C.3     1  UNL1        0.0495
     20 C          65.0874   91.3656   14.0651 C.ar    1  UNL1       -0.0068
     21 C          66.1907   92.2595   14.5485 C.ar    1  UNL1       -0.0030
     22 C          66.7912   93.2767   13.6240 C.ar    1  UNL1       -0.0002
     23 C          66.2885   93.3999   12.2161 C.ar    1  UNL1        0.0013
     24 C          65.1852   92.5060   11.7327 C.ar    1  UNL1        0.0146
     25 C          64.5847   91.4889   12.6572 C.ar    1  UNL1        0.0499
@<TRIPOS>BOND
     1    15    16    2
     2    16    14    1
     3    14     1    1
     4     1     2    1
     5     2     3    2
     6     3     8    1
     7     8     9    1
     8     9    10    1
     9    10    11    1
    10    11    12    1
    11    12    13    1
    12     3     4    1
    13     4     5    1
    14     5     6    2
    15     5     7    1
    16    16    17   am
    17    17    18    1
    18    18    19    1
    19    19    20    1
    20    20    21   ar
    21    21    22   ar
    22    22    23   ar
    23    23    24   ar
    24    24    25   ar
    25     7     1    2
    26    25    17    1
    27    13     8    1
    28    25    20   ar
@<TRIPOS>MOLECULE
*****
 25 28 0 0 0
SMALL
GASTEIGER

@<TRIPOS>ATOM
      1 C          63.8742   87.6046   13.6765 C.2     1  UNL1        0.3580
      2 N          63.0412   87.3294   12.4598 N.2     1  UNL1       -0.0039
      3 C          62.5530   88.4666   11.6122 C.2     1  UNL1        0.3159
      4 C          62.8978   89.8790   11.9814 C.3     1  UNL1        0.2333
      5 C          63.7307   90.1542   13.1981 C.2     1  UNL1        0.3644
      6 O          64.0755   91.5667   13.5673 O.2     1  UNL1       -0.2422
      7 N          64.2189   89.0170   14.0457 N.am    1  UNL1        0.0289
      8 N          61.7201   88.1914   10.3954 N.pl3   1  UNL1       -0.1888
      9 C          61.6925   86.8144    9.8012 C.3     1  UNL1        0.2343
     10 C          60.8596   86.5392    8.5844 C.3     1  UNL1        0.1929
     11 O          60.0542   87.6410    7.9619 O.3     1  UNL1       -0.3449
     12 C          60.0818   89.0181    8.5563 C.3     1  UNL1        0.1929
     13 C          60.9147   89.2933    9.7730 C.3     1  UNL1        0.2343
     14 C          64.3624   86.4674   14.5241 C.3     1  UNL1        0.2068
     15 O          62.5317   85.1005   15.7611 O.2     1  UNL1       -0.2739
     16 C          63.5374   85.2214   14.6549 C.2     1  UNL1        0.2419
     17 N          63.7182   84.0964   13.6793 N.am    1  UNL1       -0.2581
     18 C          64.6796   84.0736   12.5281 C.3     1  UNL1        0.1029
     19 C          64.5249   82.7598   11.8211 C.3     1  UNL1        0.0495
     20 C          63.4680   81.9706   12.5353 C.ar    1  UNL1       -0.0068
     21 C          62.8951   80.6065   12.2882 C.ar    1  UNL1       -0.0030
     22 C          61.8237   80.0685   13.1896 C.ar    1  UNL1       -0.0002
     23 C          61.3252   80.8946   14.3381 C.ar    1  UNL1        0.0013
     24 C          61.8980   82.2587   14.5852 C.ar    1  UNL1        0.0146
     25 C          62.9694   82.7967   13.6838 C.ar    1  UNL1        0.0499
@<TRIPOS>BOND
     1    15    16    2
     2    16    14    1
     3    14     1    1
     4     1     2    1
     5     2     3    2
     6     3     8    1
     7     8     9    1
     8     9    10    1
     9    10    11    1
    10    11    12    1
    11    12    13    1
    12     3     4    1
    13     4     5    1
    14     5     6    2
    15     5     7    1
    16    16    17   am
    17    17    18    1
    18    18    19    1
    19    19    20    1
    20    20    21   ar
    21    21    22   ar
    22    22    23   ar
    23    23    24   ar
    24    24    25   ar
    25     7     1    2
    26    25    17    1
    27    13     8    1
    28    25    20   ar
@<TRIPOS>MOLECULE
*****
 25 28 0 0 0
SMALL
GASTEIGER

@<TRIPOS>ATOM
      1 C          64.4227   91.2632   13.2067 C.2     1  UNL1        0.3580
      2 N          64.9564   92.0812   12.0682 N.2     1  UNL1       -0.0039
      3 C          65.9969   93.1313   12.3223 C.2     1  UNL1        0.3159
      4 C          66.5037   93.3634   13.7149 C.3     1  UNL1        0.2333
      5 C          65.9700   92.5454   14.8533 C.2     1  UNL1        0.3644
      6 O          66.4768   92.7776   16.2460 O.2     1  UNL1       -0.2422
      7 N          64.9294   91.4953   14.5992 N.am    1  UNL1        0.0289
      8 N          66.5306   93.9493   11.1839 N.pl3   1  UNL1       -0.1888
      9 C          66.3279   95.4355   11.1685 C.3     1  UNL1        0.2343
     10 C          66.8616   96.2534   10.0301 C.3     1  UNL1        0.1929
     11 O          67.5980   95.5853    8.9070 O.3     1  UNL1       -0.3449
     12 C          67.8007   94.0990    8.9224 C.3     1  UNL1        0.1929
     13 C          67.2670   93.2810   10.0608 C.3     1  UNL1        0.2343
     14 C          63.3821   90.2131   12.9525 C.3     1  UNL1        0.2068
     15 O          64.4674   88.4628   14.5364 O.2     1  UNL1       -0.2739
     16 C          63.6543   88.7838   13.3175 C.2     1  UNL1        0.2419
     17 N          63.1133   87.6756   12.4635 N.am    1  UNL1       -0.2581
     18 C          62.2885   87.8418   11.2217 C.3     1  UNL1        0.1029
     19 C          61.9676   86.4756   10.6921 C.3     1  UNL1        0.0495
     20 C          62.5942   85.4650   11.6066 C.ar    1  UNL1       -0.0068
     21 C          62.6114   83.9653   11.5838 C.ar    1  UNL1       -0.0030
     22 C          63.3367   83.2073   12.6558 C.ar    1  UNL1       -0.0002
     23 C          64.0448   83.9490   13.7506 C.ar    1  UNL1        0.0013
     24 C          64.0276   85.4487   13.7734 C.ar    1  UNL1        0.0146
     25 C          63.3023   86.2067   12.7014 C.ar    1  UNL1        0.0499
@<TRIPOS>BOND
     1    15    16    2
     2    16    14    1
     3    14     1    1
     4     1     2    1
     5     2     3    2
     6     3     8    1
     7     8     9    1
     8     9    10    1
     9    10    11    1
    10    11    12    1
    11    12    13    1
    12     3     4    1
    13     4     5    1
    14     5     6    2
    15     5     7    1
    16    16    17   am
    17    17    18    1
    18    18    19    1
    19    19    20    1
    20    20    21   ar
    21    21    22   ar
    22    22    23   ar
    23    23    24   ar
    24    24    25   ar
    25     7     1    2
    26    25    17    1
    27    13     8    1
    28    25    20   ar
@<TRIPOS>MOLECULE
*****
 25 28 0 0 0
SMALL
GASTEIGER

@<TRIPOS>ATOM
      1 C          64.7564   91.2271   13.5230 C.2     1  UNL1        0.3580
      2 N          65.1374   91.9859   12.2865 N.2     1  UNL1       -0.0039
      3 C          66.4933   92.6190   12.1829 C.2     1  UNL1        0.3159
      4 C          67.4682   92.4931   13.3159 C.3     1  UNL1        0.2333
      5 C          67.0872   91.7343   14.5524 C.2     1  UNL1        0.3644
      6 O          68.0623   91.6084   15.6854 O.2     1  UNL1       -0.2422
      7 N          65.7313   91.1012   14.6560 N.am    1  UNL1        0.0289
      8 N          66.8743   93.3779   10.9464 N.pl3   1  UNL1       -0.1888
      9 C          67.6963   92.7134    9.8821 C.3     1  UNL1        0.2343
     10 C          68.0773   93.4723    8.6456 C.3     1  UNL1        0.1929
     11 O          67.6362   94.8956    8.4734 O.3     1  UNL1       -0.3449
     12 C          66.8141   95.5601    9.5378 C.3     1  UNL1        0.1929
     13 C          66.4331   94.8012   10.7743 C.3     1  UNL1        0.2343
     14 C          63.4005   90.5940   13.6265 C.3     1  UNL1        0.2068
     15 O          62.3588   89.4138   11.5597 O.2     1  UNL1       -0.2739
     16 C          63.0984   89.3390   12.8625 C.2     1  UNL1        0.2419
     17 N          63.5359   88.0092   13.4013 N.am    1  UNL1       -0.2581
     18 C          64.2796   87.7788   14.6834 C.3     1  UNL1        0.1029
     19 C          64.5098   86.3036   14.8270 C.3     1  UNL1        0.0495
     20 C          63.9083   85.6222   13.6337 C.ar    1  UNL1       -0.0068
     21 C          63.8310   84.1781   13.2356 C.ar    1  UNL1       -0.0030
     22 C          63.1518   83.7881   11.9563 C.ar    1  UNL1       -0.0002
     23 C          62.5499   84.8423   11.0752 C.ar    1  UNL1        0.0013
     24 C          62.6272   86.2864   11.4732 C.ar    1  UNL1        0.0146
     25 C          63.3064   86.6763   12.7525 C.ar    1  UNL1        0.0499
@<TRIPOS>BOND
     1    15    16    2
     2    16    14    1
     3    14     1    1
     4     1     2    1
     5     2     3    2
     6     3     8    1
     7     8     9    1
     8     9    10    1
     9    10    11    1
    10    11    12    1
    11    12    13    1
    12     3     4    1
    13     4     5    1
    14     5     6    2
    15     5     7    1
    16    16    17   am
    17    17    18    1
    18    18    19    1
    19    19    20    1
    20    20    21   ar
    21    21    22   ar
    22    22    23   ar
    23    23    24   ar
    24    24    25   ar
    25     7     1    2
    26    25    17    1
    27    13     8    1
    28    25    20   ar
@<TRIPOS>MOLECULE
*****
 25 28 0 0 0
SMALL
GASTEIGER

@<TRIPOS>ATOM
      1 C          65.3192   91.2853   14.0078 C.2     1  UNL1        0.3580
      2 N          64.5220   90.8106   12.8292 N.2     1  UNL1       -0.0039
      3 C          63.2588   90.0305   13.0433 C.2     1  UNL1        0.3159
      4 C          62.7930   89.7251   14.4360 C.3     1  UNL1        0.2333
      5 C          63.5903   90.1997   15.6146 C.2     1  UNL1        0.3644
      6 O          63.1244   89.8943   17.0074 O.2     1  UNL1       -0.2422
      7 N          64.8534   90.9799   15.4005 N.am    1  UNL1        0.0289
      8 N          62.4616   89.5558   11.8647 N.pl3   1  UNL1       -0.1888
      9 C          61.4516   90.4637   11.2278 C.3     1  UNL1        0.2343
     10 C          60.6544   89.9890   10.0492 C.3     1  UNL1        0.1929
     11 O          60.8671   88.6064    9.5076 O.3     1  UNL1       -0.3449
     12 C          61.8771   87.6985   10.1446 C.3     1  UNL1        0.1929
     13 C          62.6744   88.1732   11.3232 C.3     1  UNL1        0.2343
     14 C          66.5824   92.0654   13.7937 C.3     1  UNL1        0.2068
     15 O          66.1031   94.6105   13.5869 O.2     1  UNL1       -0.2739
     16 C          66.5587   93.3204   12.9722 C.2     1  UNL1        0.2419
     17 N          66.9908   93.2851   11.5362 N.am    1  UNL1       -0.2581
     18 C          67.4686   92.0755   10.7887 C.3     1  UNL1        0.1029
     19 C          67.7939   92.4961    9.3861 C.3     1  UNL1        0.0495
     20 C          67.5172   93.9655    9.2668 C.ar    1  UNL1       -0.0068
     21 C          67.6530   94.9225    8.1197 C.ar    1  UNL1       -0.0030
     22 C          67.2925   96.3671    8.3016 C.ar    1  UNL1       -0.0002
     23 C          66.7962   96.8547    9.6304 C.ar    1  UNL1        0.0013
     24 C          66.6603   95.8977   10.7774 C.ar    1  UNL1        0.0146
     25 C          67.0208   94.4531   10.5956 C.ar    1  UNL1        0.0499
@<TRIPOS>BOND
     1    15    16    2
     2    16    14    1
     3    14     1    1
     4     1     2    1
     5     2     3    2
     6     3     8    1
     7     8     9    1
     8     9    10    1
     9    10    11    1
    10    11    12    1
    11    12    13    1
    12     3     4    1
    13     4     5    1
    14     5     6    2
    15     5     7    1
    16    16    17   am
    17    17    18    1
    18    18    19    1
    19    19    20    1
    20    20    21   ar
    21    21    22   ar
    22    22    23   ar
    23    23    24   ar
    24    24    25   ar
    25     7     1    2
    26    25    17    1
    27    13     8    1
    28    25    20   ar
@<TRIPOS>MOLECULE
*****
 25 28 0 0 0
SMALL
GASTEIGER

@<TRIPOS>ATOM
      1 C          64.6924   91.4007   13.4598 C.2     1  UNL1        0.3580
      2 N          64.9728   92.3188   12.3072 N.2     1  UNL1       -0.0039
      3 C          66.3005   93.0089   12.2038 C.2     1  UNL1        0.3159
      4 C          67.3479   92.7810   13.2531 C.3     1  UNL1        0.2333
      5 C          67.0675   91.8629   14.4057 C.2     1  UNL1        0.3644
      6 O          68.1150   91.6349   15.4551 O.2     1  UNL1       -0.2422
      7 N          65.7397   91.1727   14.5091 N.am    1  UNL1        0.0289
      8 N          66.5809   93.9270   11.0512 N.pl3   1  UNL1       -0.1888
      9 C          66.1176   95.3529   11.0982 C.3     1  UNL1        0.2343
     10 C          66.3979   96.2709    9.9456 C.3     1  UNL1        0.1929
     11 O          67.1417   95.7631    8.7460 O.3     1  UNL1       -0.3449
     12 C          67.6051   94.3372    8.6990 C.3     1  UNL1        0.1929
     13 C          67.3247   93.4191    9.8516 C.3     1  UNL1        0.2343
     14 C          63.3646   90.7106   13.5631 C.3     1  UNL1        0.2068
     15 O          62.0427   91.0564   11.3534 O.2     1  UNL1       -0.2739
     16 C          62.7163   90.1438   12.3349 C.2     1  UNL1        0.2419
     17 N          62.7416   88.6644   12.0882 N.am    1  UNL1       -0.2581
     18 C          63.3739   87.6334   12.9753 C.3     1  UNL1        0.1029
     19 C          63.1622   86.2881   12.3465 C.3     1  UNL1        0.0495
     20 C          62.3990   86.4878   11.0707 C.ar    1  UNL1       -0.0068
     21 C          61.9071   85.5220   10.0337 C.ar    1  UNL1       -0.0030
     22 C          61.1554   86.0249    8.8371 C.ar    1  UNL1       -0.0002
     23 C          60.8954   87.4936    8.6775 C.ar    1  UNL1        0.0013
     24 C          61.3873   88.4594    9.7144 C.ar    1  UNL1        0.0146
     25 C          62.1390   87.9565   10.9110 C.ar    1  UNL1        0.0499
@<TRIPOS>BOND
     1    15    16    2
     2    16    14    1
     3    14     1    1
     4     1     2    1
     5     2     3    2
     6     3     8    1
     7     8     9    1
     8     9    10    1
     9    10    11    1
    10    11    12    1
    11    12    13    1
    12     3     4    1
    13     4     5    1
    14     5     6    2
    15     5     7    1
    16    16    17   am
    17    17    18    1
    18    18    19    1
    19    19    20    1
    20    20    21   ar
    21    21    22   ar
    22    22    23   ar
    23    23    24   ar
    24    24    25   ar
    25     7     1    2
    26    25    17    1
    27    13     8    1
    28    25    20   ar
