@<TRIPOS>MOLECULE
*****
 34 36 0 0 0
SMALL
GASTEIGER

@<TRIPOS>ATOM
      1 C          60.4291   86.6614    7.9185 C.3     1  UNL1        0.0821
      2 C          59.6646   87.7324    7.1985 C.3     1  UNL1        0.0473
      3 C          59.6759   89.1398    7.7174 C.3     1  UNL1        0.1183
      4 C          60.4517   89.4761    8.9563 C.3     1  UNL1        0.0511
      5 C          61.2163   88.4051    9.6763 C.3     1  UNL1        0.1256
      6 N          61.2050   86.9978    9.1574 N.3     1  UNL1       -0.1544
      7 S          61.9696   85.9268    9.8775 S.O2    1  UNL1        0.0633
      8 O          63.0645   86.0222    8.8568 O.2     1  UNL1       -0.1528
      9 O          60.8746   85.8314   10.8982 O.2     1  UNL1       -0.1528
     10 C          62.7341   84.8558   10.5975 C.ar    1  UNL1        0.1223
     11 C          62.7017   84.7896   12.0957 C.ar    1  UNL1        0.0208
     12 C          63.4662   83.7185   12.8158 C.ar    1  UNL1        0.0128
     13 C          64.2631   82.7139   12.0377 C.ar    1  UNL1        0.0578
     14 CL         65.0277   81.6429   12.7577 Cl      1  UNL1       -0.0822
     15 C          64.2956   82.7801   10.5395 C.ar    1  UNL1        0.0128
     16 C          63.5310   83.8511    9.8194 C.ar    1  UNL1        0.0208
     17 C          61.4376   84.8190    6.3894 C.3     1  UNL1        0.0015
     18 C          60.4178   85.2541    7.3996 C.3     1  UNL1        0.0178
     19 O          58.9113   90.2108    6.9973 O.3     1  UNL1       -0.3535
     20 C          59.1308   90.4313    5.5299 C.3     1  UNL1        0.1740
     21 C          61.9922   88.7415   10.9152 C.3     1  UNL1        0.2277
     22 O          61.9768   90.1417   11.4528 O.3     1  UNL1       -0.4330
     23 C          63.1211   91.0681   11.1653 C.2     1  UNL1        0.4050
     24 O          63.1944   91.7834    9.8489 O.2     1  UNL1       -0.2262
     25 N          64.1919   91.2791   12.1943 N.am    1  UNL1       -0.2432
     26 C          64.1185   90.5638   13.5107 C.3     1  UNL1        0.1141
     27 C          65.1894   90.7748   14.5396 C.3     1  UNL1        0.0941
     28 N          66.3336   91.7012   14.2521 N.3     1  UNL1       -0.2676
     29 C          66.4070   92.4165   12.9357 C.3     1  UNL1        0.0941
     30 C          65.3361   92.2055   11.9068 C.3     1  UNL1        0.1141
     31 C          67.4045   91.9122   15.2811 C.3     1  UNL1        0.1043
     32 C          68.5966   92.7639   14.9591 C.3     1  UNL1        0.1544
     33 O          69.6721   92.2378   14.0555 O.3     1  UNL1       -0.3805
     34 H          70.1176   91.4903   14.4842 H       1  UNL1        0.2105
@<TRIPOS>BOND
     1    17    18    1
     2     1    18    1
     3     1     2    1
     4     2     3    1
     5     3    19    1
     6    19    20    1
     7     3     4    1
     8     4     5    1
     9     5    21    1
    10    21    22    1
    11    22    23    1
    12    23    24    2
    13    23    25   am
    14    25    26    1
    15    26    27    1
    16    27    28    1
    17    28    31    1
    18    31    32    1
    19    32    33    1
    20    28    29    1
    21    29    30    1
    22     5     6    1
    23     6     7    1
    24     7     8    2
    25     7     9    2
    26     7    10    1
    27    10    11   ar
    28    11    12   ar
    29    12    13   ar
    30    13    14    1
    31    13    15   ar
    32    15    16   ar
    33     6     1    1
    34    16    10   ar
    35    30    25    1
    36    33    34    1
@<TRIPOS>MOLECULE
*****
 34 36 0 0 0
SMALL
GASTEIGER

@<TRIPOS>ATOM
      1 C          64.8551   91.6994   12.7329 C.3     1  UNL1        0.0821
      2 C          65.7419   92.4802   13.6569 C.3     1  UNL1        0.0473
      3 C          65.7304   92.1920   15.1289 C.3     1  UNL1        0.1183
      4 C          64.8320   91.1231   15.6769 C.3     1  UNL1        0.0511
      5 C          63.9452   90.3423   14.7529 C.3     1  UNL1        0.1256
      6 N          63.9567   90.6305   13.2808 N.3     1  UNL1       -0.1544
      7 S          63.0699   89.8496   12.3568 S.O2    1  UNL1        0.0633
      8 O          62.2730   91.0887   12.0745 O.2     1  UNL1       -0.1528
      9 O          63.8667   88.6106   12.6391 O.2     1  UNL1       -0.1528
     10 C          62.1831   89.0688   11.4328 C.ar    1  UNL1        0.1223
     11 C          61.1766   89.7815   10.5789 C.ar    1  UNL1        0.0208
     12 C          60.2898   89.0005    9.6549 C.ar    1  UNL1        0.0128
     13 C          60.4094   87.5070    9.5848 C.ar    1  UNL1        0.0578
     14 CL         59.5226   86.7261    8.6608 Cl      1  UNL1       -0.0822
     15 C          61.4159   86.7943   10.4387 C.ar    1  UNL1        0.0128
     16 C          62.3027   87.5751   11.3627 C.ar    1  UNL1        0.0208
     17 C          66.0044   92.7551   10.6558 C.3     1  UNL1        0.0015
     18 C          64.8666   91.9875   11.2608 C.3     1  UNL1        0.0178
     19 O          66.6172   92.9729   16.0530 O.3     1  UNL1       -0.3535
     20 C          67.9817   93.4003   15.5997 C.3     1  UNL1        0.1740
     21 C          63.0468   89.2734   15.3008 C.3     1  UNL1        0.2277
     22 O          63.6055   88.2145   16.2045 O.3     1  UNL1       -0.4330
     23 C          62.8424   86.9433   16.4318 C.2     1  UNL1        0.4050
     24 O          61.7663   86.8909   17.4755 O.2     1  UNL1       -0.2262
     25 N          63.1554   85.7245   15.6154 N.am    1  UNL1       -0.2432
     26 C          64.2315   85.7768   14.5717 C.3     1  UNL1        0.1141
     27 C          64.5445   84.5580   13.7554 C.3     1  UNL1        0.0941
     28 N          63.7813   83.2867   13.9827 N.3     1  UNL1       -0.2676
     29 C          62.7052   83.2344   15.0264 C.3     1  UNL1        0.0941
     30 C          62.3923   84.4533   15.8427 C.3     1  UNL1        0.1141
     31 C          64.0943   82.0679   13.1663 C.3     1  UNL1        0.1043
     32 C          63.9482   82.1070   11.6740 C.3     1  UNL1        0.1544
     33 O          65.0377   82.6977   10.8289 O.3     1  UNL1       -0.3805
     34 H          65.1081   83.6480   11.0100 H       1  UNL1        0.2105
@<TRIPOS>BOND
     1    17    18    1
     2     1    18    1
     3     1     2    1
     4     2     3    1
     5     3    19    1
     6    19    20    1
     7     3     4    1
     8     4     5    1
     9     5    21    1
    10    21    22    1
    11    22    23    1
    12    23    24    2
    13    23    25   am
    14    25    26    1
    15    26    27    1
    16    27    28    1
    17    28    31    1
    18    31    32    1
    19    32    33    1
    20    28    29    1
    21    29    30    1
    22     5     6    1
    23     6     7    1
    24     7     8    2
    25     7     9    2
    26     7    10    1
    27    10    11   ar
    28    11    12   ar
    29    12    13   ar
    30    13    14    1
    31    13    15   ar
    32    15    16   ar
    33     6     1    1
    34    16    10   ar
    35    30    25    1
    36    33    34    1
@<TRIPOS>MOLECULE
*****
 34 36 0 0 0
SMALL
GASTEIGER

@<TRIPOS>ATOM
      1 C          66.0334   92.8315   14.3315 C.3     1  UNL1        0.0821
      2 C          66.5501   93.9884   13.5286 C.3     1  UNL1        0.0473
      3 C          66.1986   94.1094   12.0754 C.3     1  UNL1        0.1183
      4 C          65.3304   93.0734   11.4250 C.3     1  UNL1        0.0511
      5 C          64.8137   91.9165   12.2279 C.3     1  UNL1        0.1256
      6 N          65.1652   91.7956   13.6811 N.3     1  UNL1       -0.1544
      7 S          64.6484   90.6386   14.4839 S.O2    1  UNL1        0.0633
      8 O          63.3905   91.4022   14.7747 O.2     1  UNL1       -0.1528
      9 O          65.9063   89.8751   14.1932 O.2     1  UNL1       -0.1528
     10 C          64.1317   89.4817   15.2867 C.ar    1  UNL1        0.1223
     11 C          63.2913   89.7295   16.5042 C.ar    1  UNL1        0.0208
     12 C          62.7746   88.5725   17.3070 C.ar    1  UNL1        0.0128
     13 C          63.0984   87.1678   16.8923 C.ar    1  UNL1        0.0578
     14 CL         62.5817   86.0109   17.6951 Cl      1  UNL1       -0.0822
     15 C          63.9388   86.9200   15.6749 C.ar    1  UNL1        0.0128
     16 C          64.4555   88.0769   14.8721 C.ar    1  UNL1        0.0208
     17 C          67.8157   92.5318   16.1979 C.3     1  UNL1        0.0015
     18 C          66.3848   92.7106   15.7847 C.3     1  UNL1        0.0178
     19 O          66.7154   95.2663   11.2726 O.3     1  UNL1       -0.3535
     20 C          67.1274   95.0637    9.8446 C.3     1  UNL1        0.1740
     21 C          63.9455   90.8805   11.5775 C.3     1  UNL1        0.2277
     22 O          62.4596   90.9125   11.7803 O.3     1  UNL1       -0.4330
     23 C          61.5786   89.9644   11.0221 C.2     1  UNL1        0.4050
     24 O          60.4697   90.4955   10.1627 O.2     1  UNL1       -0.2262
     25 N          61.8063   88.4853   11.1231 N.am    1  UNL1       -0.2432
     26 C          62.9152   87.9541   11.9824 C.3     1  UNL1        0.1141
     27 C          63.1429   86.4750   12.0835 C.3     1  UNL1        0.0941
     28 N          62.2619   85.5269   11.3252 N.3     1  UNL1       -0.2676
     29 C          61.1530   86.0580   10.4659 C.3     1  UNL1        0.0941
     30 C          60.9253   87.5373   10.3649 C.3     1  UNL1        0.1141
     31 C          62.4896   84.0478   11.4263 C.3     1  UNL1        0.1043
     32 C          63.6249   83.4111   10.6808 C.3     1  UNL1        0.1544
     33 O          64.9506   83.2180   11.3555 O.3     1  UNL1       -0.3805
     34 H          65.3459   84.0833   11.5451 H       1  UNL1        0.2105
@<TRIPOS>BOND
     1    17    18    1
     2     1    18    1
     3     1     2    1
     4     2     3    1
     5     3    19    1
     6    19    20    1
     7     3     4    1
     8     4     5    1
     9     5    21    1
    10    21    22    1
    11    22    23    1
    12    23    24    2
    13    23    25   am
    14    25    26    1
    15    26    27    1
    16    27    28    1
    17    28    31    1
    18    31    32    1
    19    32    33    1
    20    28    29    1
    21    29    30    1
    22     5     6    1
    23     6     7    1
    24     7     8    2
    25     7     9    2
    26     7    10    1
    27    10    11   ar
    28    11    12   ar
    29    12    13   ar
    30    13    14    1
    31    13    15   ar
    32    15    16   ar
    33     6     1    1
    34    16    10   ar
    35    30    25    1
    36    33    34    1
@<TRIPOS>MOLECULE
*****
 34 36 0 0 0
SMALL
GASTEIGER

@<TRIPOS>ATOM
      1 C          62.7837   84.3666   13.9542 C.3     1  UNL1        0.0821
      2 C          63.0609   84.4871   15.4234 C.3     1  UNL1        0.0473
      3 C          63.4910   85.8034   16.0000 C.3     1  UNL1        0.1183
      4 C          63.6439   86.9991   15.1073 C.3     1  UNL1        0.0511
      5 C          63.3667   86.8786   13.6381 C.3     1  UNL1        0.1256
      6 N          62.9366   85.5623   13.0616 N.3     1  UNL1       -0.1544
      7 S          62.6594   85.4418   11.5923 S.O2    1  UNL1        0.0633
      8 O          63.9250   84.6558   11.4179 O.2     1  UNL1       -0.1528
      9 O          61.3938   86.2277   11.7667 O.2     1  UNL1       -0.1528
     10 C          62.3821   85.3213   10.1231 C.ar    1  UNL1        0.1223
     11 C          61.1637   85.9683    9.5342 C.ar    1  UNL1        0.0208
     12 C          60.8865   85.8477    8.0650 C.ar    1  UNL1        0.0128
     13 C          61.8277   85.0803    7.1846 C.ar    1  UNL1        0.0578
     14 CL         61.5505   84.9598    5.7154 Cl      1  UNL1       -0.0822
     15 C          63.0462   84.4333    7.7735 C.ar    1  UNL1        0.0128
     16 C          63.3234   84.5537    9.2427 C.ar    1  UNL1        0.0208
     17 C          61.9998   81.9122   14.2885 C.3     1  UNL1        0.0015
     18 C          62.3536   83.0503   13.3777 C.3     1  UNL1        0.0178
     19 O          63.7682   85.9239   17.4693 O.3     1  UNL1       -0.3535
     20 C          62.8331   86.7013   18.3476 C.3     1  UNL1        0.1740
     21 C          63.5196   88.0743   12.7454 C.3     1  UNL1        0.2277
     22 O          63.0305   89.4173   13.2004 O.3     1  UNL1       -0.4330
     23 C          63.9835   90.3879   13.8328 C.2     1  UNL1        0.4050
     24 O          64.2521   90.3227   15.3071 O.2     1  UNL1       -0.2262
     25 N          64.6680   91.4235   12.9908 N.am    1  UNL1       -0.2432
     26 C          64.3994   91.4888   11.5165 C.3     1  UNL1        0.1141
     27 C          65.0839   92.5244   10.6746 C.3     1  UNL1        0.0941
     28 N          66.0369   93.4950   11.3070 N.3     1  UNL1       -0.2676
     29 C          66.3055   93.4297   12.7813 C.3     1  UNL1        0.0941
     30 C          65.6210   92.3940   13.6232 C.3     1  UNL1        0.1141
     31 C          66.7214   94.5306   10.4651 C.3     1  UNL1        0.1043
     32 C          67.6696   94.1096    9.3817 C.3     1  UNL1        0.1544
     33 O          69.0345   93.5987    9.7365 O.3     1  UNL1       -0.3805
     34 H          69.5532   94.3136   10.1374 H       1  UNL1        0.2105
@<TRIPOS>BOND
     1    17    18    1
     2     1    18    1
     3     1     2    1
     4     2     3    1
     5     3    19    1
     6    19    20    1
     7     3     4    1
     8     4     5    1
     9     5    21    1
    10    21    22    1
    11    22    23    1
    12    23    24    2
    13    23    25   am
    14    25    26    1
    15    26    27    1
    16    27    28    1
    17    28    31    1
    18    31    32    1
    19    32    33    1
    20    28    29    1
    21    29    30    1
    22     5     6    1
    23     6     7    1
    24     7     8    2
    25     7     9    2
    26     7    10    1
    27    10    11   ar
    28    11    12   ar
    29    12    13   ar
    30    13    14    1
    31    13    15   ar
    32    15    16   ar
    33     6     1    1
    34    16    10   ar
    35    30    25    1
    36    33    34    1
@<TRIPOS>MOLECULE
*****
 34 36 0 0 0
SMALL
GASTEIGER

@<TRIPOS>ATOM
      1 C          60.4182   86.5646    7.8846 C.3     1  UNL1        0.0821
      2 C          59.6538   87.5710    7.0768 C.3     1  UNL1        0.0473
      3 C          59.5201   88.9818    7.5684 C.3     1  UNL1        0.1183
      4 C          60.1507   89.3862    8.8679 C.3     1  UNL1        0.0511
      5 C          60.9151   88.3797    9.6758 C.3     1  UNL1        0.1256
      6 N          61.0489   86.9689    9.1841 N.3     1  UNL1       -0.1544
      7 S          61.8133   85.9624    9.9921 S.O2    1  UNL1        0.0633
      8 O          60.7524   86.0069   11.0514 O.2     1  UNL1       -0.1528
      9 O          62.8743   85.9180    8.9327 O.2     1  UNL1       -0.1528
     10 C          62.5778   84.9560   10.7999 C.ar    1  UNL1        0.1223
     11 C          63.4680   83.9631   10.1131 C.ar    1  UNL1        0.0208
     12 C          64.2325   82.9566   10.9211 C.ar    1  UNL1        0.0128
     13 C          64.1067   82.9431   12.4157 C.ar    1  UNL1        0.0578
     14 CL         64.8711   81.9367   13.2236 Cl      1  UNL1       -0.0822
     15 C          63.2165   83.9360   13.1025 C.ar    1  UNL1        0.0128
     16 C          62.4520   84.9424   12.2946 C.ar    1  UNL1        0.0208
     17 C          61.5372   84.8271    6.3101 C.3     1  UNL1        0.0015
     18 C          60.5520   85.1538    7.3930 C.3     1  UNL1        0.0178
     19 O          58.7556   89.9883    6.7605 O.3     1  UNL1       -0.3535
     20 C          59.3146   90.4876    5.4612 C.3     1  UNL1        0.1740
     21 C          61.5458   88.7840   10.9754 C.3     1  UNL1        0.2277
     22 O          63.0212   89.0458   11.0436 O.3     1  UNL1       -0.4330
     23 C          63.6209   89.6400   12.2835 C.2     1  UNL1        0.4050
     24 O          63.5168   88.9114   13.5905 O.2     1  UNL1       -0.2262
     25 N          64.3248   90.9629   12.2164 N.am    1  UNL1       -0.2432
     26 C          64.4289   91.6916   10.9094 C.3     1  UNL1        0.1141
     27 C          65.1327   93.0145   10.8422 C.3     1  UNL1        0.0941
     28 N          65.7325   93.6088   12.0821 N.3     1  UNL1       -0.2676
     29 C          65.6283   92.8801   13.3891 C.3     1  UNL1        0.0941
     30 C          64.9245   91.5571   13.4562 C.3     1  UNL1        0.1141
     31 C          66.4363   94.9316   12.0150 C.3     1  UNL1        0.1043
     32 C          66.2138   95.8409   10.8430 C.3     1  UNL1        0.1544
     33 O          64.8962   96.5373   10.6735 O.3     1  UNL1       -0.3805
     34 H          64.2029   95.8805   10.5033 H       1  UNL1        0.2105
@<TRIPOS>BOND
     1    17    18    1
     2     1    18    1
     3     1     2    1
     4     2     3    1
     5     3    19    1
     6    19    20    1
     7     3     4    1
     8     4     5    1
     9     5    21    1
    10    21    22    1
    11    22    23    1
    12    23    24    2
    13    23    25   am
    14    25    26    1
    15    26    27    1
    16    27    28    1
    17    28    31    1
    18    31    32    1
    19    32    33    1
    20    28    29    1
    21    29    30    1
    22     5     6    1
    23     6     7    1
    24     7     8    2
    25     7     9    2
    26     7    10    1
    27    10    11   ar
    28    11    12   ar
    29    12    13   ar
    30    13    14    1
    31    13    15   ar
    32    15    16   ar
    33     6     1    1
    34    16    10   ar
    35    30    25    1
    36    33    34    1
@<TRIPOS>MOLECULE
*****
 34 36 0 0 0
SMALL
GASTEIGER

@<TRIPOS>ATOM
      1 C          62.5543   84.2795   14.2376 C.3     1  UNL1        0.0821
      2 C          62.7535   84.4026   15.7192 C.3     1  UNL1        0.0473
      3 C          63.3003   85.6731   16.2994 C.3     1  UNL1        0.1183
      4 C          63.6480   86.8205   15.3981 C.3     1  UNL1        0.0511
      5 C          63.4489   86.6974   13.9165 C.3     1  UNL1        0.1256
      6 N          62.9020   85.4269   13.3363 N.3     1  UNL1       -0.1544
      7 S          62.7029   85.3038   11.8546 S.O2    1  UNL1        0.0633
      8 O          61.4418   86.1094   11.9571 O.2     1  UNL1       -0.1528
      9 O          63.9640   84.4982   11.7521 O.2     1  UNL1       -0.1528
     10 C          62.5038   85.1807   10.3730 C.ar    1  UNL1        0.1223
     11 C          61.4028   85.9439    9.6982 C.ar    1  UNL1        0.0208
     12 C          61.2037   85.8207    8.2166 C.ar    1  UNL1        0.0128
     13 C          62.1057   84.9345    7.4097 C.ar    1  UNL1        0.0578
     14 CL         61.9066   84.8114    5.9281 Cl      1  UNL1       -0.0822
     15 C          63.2067   84.1713    8.0845 C.ar    1  UNL1        0.0128
     16 C          63.4058   84.2944    9.5661 C.ar    1  UNL1        0.0208
     17 C          62.4475   81.6838   14.2055 C.3     1  UNL1        0.0015
     18 C          62.0075   83.0089   13.6574 C.3     1  UNL1        0.0178
     19 O          63.4995   85.7962   17.7811 O.3     1  UNL1       -0.3535
     20 C          62.7432   86.8344   18.5558 C.3     1  UNL1        0.1740
     21 C          63.7966   87.8449   13.0151 C.3     1  UNL1        0.2277
     22 O          62.9224   89.0633   12.9808 O.3     1  UNL1       -0.4330
     23 C          63.4171   90.3234   12.3346 C.2     1  UNL1        0.4050
     24 O          62.8471   90.7656   11.0195 O.2     1  UNL1       -0.2262
     25 N          64.4818   91.1413   13.0036 N.am    1  UNL1       -0.2432
     26 C          65.0518   90.6991   14.3187 C.3     1  UNL1        0.1141
     27 C          66.1165   91.5170   14.9877 C.3     1  UNL1        0.0941
     28 N          66.6112   92.7771   14.3415 N.3     1  UNL1       -0.2676
     29 C          66.0411   93.2193   13.0264 C.3     1  UNL1        0.0941
     30 C          64.9764   92.4013   12.3574 C.3     1  UNL1        0.1141
     31 C          67.6758   93.5950   15.0104 C.3     1  UNL1        0.1043
     32 C          69.0157   92.9873   15.3026 C.3     1  UNL1        0.1544
     33 O          69.7907   92.3178   14.2066 O.3     1  UNL1       -0.3805
     34 H          69.3144   91.5261   13.9109 H       1  UNL1        0.2105
@<TRIPOS>BOND
     1    17    18    1
     2     1    18    1
     3     1     2    1
     4     2     3    1
     5     3    19    1
     6    19    20    1
     7     3     4    1
     8     4     5    1
     9     5    21    1
    10    21    22    1
    11    22    23    1
    12    23    24    2
    13    23    25   am
    14    25    26    1
    15    26    27    1
    16    27    28    1
    17    28    31    1
    18    31    32    1
    19    32    33    1
    20    28    29    1
    21    29    30    1
    22     5     6    1
    23     6     7    1
    24     7     8    2
    25     7     9    2
    26     7    10    1
    27    10    11   ar
    28    11    12   ar
    29    12    13   ar
    30    13    14    1
    31    13    15   ar
    32    15    16   ar
    33     6     1    1
    34    16    10   ar
    35    30    25    1
    36    33    34    1
@<TRIPOS>MOLECULE
*****
 34 36 0 0 0
SMALL
GASTEIGER

@<TRIPOS>ATOM
      1 C          62.7485   85.2675   11.9084 C.3     1  UNL1        0.0821
      2 C          63.5361   84.7012   13.0525 C.3     1  UNL1        0.0473
      3 C          64.1080   85.6158   14.0948 C.3     1  UNL1        0.1183
      4 C          63.8924   87.0967   13.9930 C.3     1  UNL1        0.0511
      5 C          63.1049   87.6630   12.8489 C.3     1  UNL1        0.1256
      6 N          62.5329   86.7484   11.8066 N.3     1  UNL1       -0.1544
      7 S          61.7453   87.3147   10.6625 S.O2    1  UNL1        0.0633
      8 O          62.9675   87.2612    9.7946 O.2     1  UNL1       -0.1528
      9 O          60.5231   87.3682   11.5304 O.2     1  UNL1       -0.1528
     10 C          60.9577   87.8811    9.5184 C.ar    1  UNL1        0.1223
     11 C          60.2061   86.9648    8.5989 C.ar    1  UNL1        0.0208
     12 C          59.4185   87.5312    7.4548 C.ar    1  UNL1        0.0128
     13 C          59.3825   89.0138    7.2303 C.ar    1  UNL1        0.0578
     14 CL         58.5949   89.5802    6.0862 Cl      1  UNL1       -0.0822
     15 C          60.1341   89.9301    8.1498 C.ar    1  UNL1        0.0128
     16 C          60.9217   89.3638    9.2938 C.ar    1  UNL1        0.0208
     17 C          63.0826   83.6898    9.8715 C.3     1  UNL1        0.0015
     18 C          62.1766   84.3529   10.8661 C.3     1  UNL1        0.0178
     19 O          64.8956   85.0494   15.2389 O.3     1  UNL1       -0.3535
     20 C          64.6422   83.6452   15.7016 C.3     1  UNL1        0.1740
     21 C          62.8892   89.1439   12.7471 C.3     1  UNL1        0.2277
     22 O          62.7477   89.9686   13.9920 O.3     1  UNL1       -0.4330
     23 C          63.8749   90.8518   14.4387 C.2     1  UNL1        0.4050
     24 O          64.2480   90.9152   15.8902 O.2     1  UNL1       -0.2262
     25 N          64.6289   91.6715   13.4340 N.am    1  UNL1       -0.2432
     26 C          64.2558   91.6081   11.9825 C.3     1  UNL1        0.1141
     27 C          65.0098   92.4278   10.9778 C.3     1  UNL1        0.0941
     28 N          66.1370   93.3110   11.4246 N.3     1  UNL1       -0.2676
     29 C          66.5100   93.3745   12.8761 C.3     1  UNL1        0.0941
     30 C          65.7560   92.5547   13.8808 C.3     1  UNL1        0.1141
     31 C          66.8910   94.1308   10.4199 C.3     1  UNL1        0.1043
     32 C          67.8158   93.4606    9.4475 C.3     1  UNL1        0.1544
     33 O          69.2967   93.4808    9.6852 O.3     1  UNL1       -0.3805
     34 H          69.6227   94.3919    9.6177 H       1  UNL1        0.2105
@<TRIPOS>BOND
     1    17    18    1
     2     1    18    1
     3     1     2    1
     4     2     3    1
     5     3    19    1
     6    19    20    1
     7     3     4    1
     8     4     5    1
     9     5    21    1
    10    21    22    1
    11    22    23    1
    12    23    24    2
    13    23    25   am
    14    25    26    1
    15    26    27    1
    16    27    28    1
    17    28    31    1
    18    31    32    1
    19    32    33    1
    20    28    29    1
    21    29    30    1
    22     5     6    1
    23     6     7    1
    24     7     8    2
    25     7     9    2
    26     7    10    1
    27    10    11   ar
    28    11    12   ar
    29    12    13   ar
    30    13    14    1
    31    13    15   ar
    32    15    16   ar
    33     6     1    1
    34    16    10   ar
    35    30    25    1
    36    33    34    1
@<TRIPOS>MOLECULE
*****
 34 36 0 0 0
SMALL
GASTEIGER

@<TRIPOS>ATOM
      1 C          62.5448   81.1784   12.8231 C.3     1  UNL1        0.0821
      2 C          62.5225   80.0651   11.8181 C.3     1  UNL1        0.0473
      3 C          63.0769   80.2858   10.4419 C.3     1  UNL1        0.1183
      4 C          63.6536   81.6197   10.0707 C.3     1  UNL1        0.0511
      5 C          63.6759   82.7330   11.0757 C.3     1  UNL1        0.1256
      6 N          63.1215   82.5124   12.4519 N.3     1  UNL1       -0.1544
      7 S          63.1439   83.6258   13.4569 S.O2    1  UNL1        0.0633
      8 O          64.4251   83.0892   14.0229 O.2     1  UNL1       -0.1528
      9 O          61.8626   84.1623   12.8909 O.2     1  UNL1       -0.1528
     10 C          63.1661   84.7391   14.4618 C.ar    1  UNL1        0.1223
     11 C          63.9588   85.9824   14.1862 C.ar    1  UNL1        0.0208
     12 C          63.9811   87.0958   15.1913 C.ar    1  UNL1        0.0128
     13 C          63.2107   86.9658   16.4717 C.ar    1  UNL1        0.0578
     14 CL         63.2330   88.0792   17.4766 Cl      1  UNL1       -0.0822
     15 C          62.4181   85.7225   16.7472 C.ar    1  UNL1        0.0128
     16 C          62.3958   84.6092   15.7423 C.ar    1  UNL1        0.0208
     17 C          60.5313   80.6618   14.3815 C.3     1  UNL1        0.0015
     18 C          61.9904   80.9577   14.1993 C.3     1  UNL1        0.0178
     19 O          63.0545   79.1724    9.4369 O.3     1  UNL1       -0.3535
     20 C          63.0761   77.7452    9.8982 C.3     1  UNL1        0.1740
     21 C          64.2526   84.0671   10.7044 C.3     1  UNL1        0.2277
     22 O          64.2447   84.5156    9.2731 O.3     1  UNL1       -0.4330
     23 C          62.9718   85.0034    8.6470 C.2     1  UNL1        0.4050
     24 O          62.5538   84.4910    7.3007 O.2     1  UNL1       -0.2262
     25 N          62.1171   86.0037    9.3673 N.am    1  UNL1       -0.2432
     26 C          62.5351   86.5162   10.7136 C.3     1  UNL1        0.1141
     27 C          61.6803   87.5164   11.4339 C.3     1  UNL1        0.0941
     28 N          60.4075   88.0043   10.8078 N.3     1  UNL1       -0.2676
     29 C          59.9894   87.4918    9.4615 C.3     1  UNL1        0.0941
     30 C          60.8443   86.4915    8.7412 C.3     1  UNL1        0.1141
     31 C          59.5527   89.0045   11.5281 C.3     1  UNL1        0.1043
     32 C          59.7530   90.4719   11.2899 C.3     1  UNL1        0.1544
     33 O          58.6785   91.4470   11.6701 O.3     1  UNL1       -0.3805
     34 H          57.8961   91.2980   11.1165 H       1  UNL1        0.2105
@<TRIPOS>BOND
     1    17    18    1
     2     1    18    1
     3     1     2    1
     4     2     3    1
     5     3    19    1
     6    19    20    1
     7     3     4    1
     8     4     5    1
     9     5    21    1
    10    21    22    1
    11    22    23    1
    12    23    24    2
    13    23    25   am
    14    25    26    1
    15    26    27    1
    16    27    28    1
    17    28    31    1
    18    31    32    1
    19    32    33    1
    20    28    29    1
    21    29    30    1
    22     5     6    1
    23     6     7    1
    24     7     8    2
    25     7     9    2
    26     7    10    1
    27    10    11   ar
    28    11    12   ar
    29    12    13   ar
    30    13    14    1
    31    13    15   ar
    32    15    16   ar
    33     6     1    1
    34    16    10   ar
    35    30    25    1
    36    33    34    1
@<TRIPOS>MOLECULE
*****
 34 36 0 0 0
SMALL
GASTEIGER

@<TRIPOS>ATOM
      1 C          62.6035   84.2482   14.2430 C.3     1  UNL1        0.0821
      2 C          62.8018   84.3498   15.7263 C.3     1  UNL1        0.0473
      3 C          63.3198   85.6223   16.3284 C.3     1  UNL1        0.1183
      4 C          63.6394   86.7932   15.4471 C.3     1  UNL1        0.0511
      5 C          63.4411   86.6917   13.9638 C.3     1  UNL1        0.1256
      6 N          62.9231   85.4192   13.3617 N.3     1  UNL1       -0.1544
      7 S          62.7248   85.3176   11.8783 S.O2    1  UNL1        0.0633
      8 O          61.4509   86.1009   11.9950 O.2     1  UNL1       -0.1528
      9 O          63.9987   84.5344   11.7616 O.2     1  UNL1       -0.1528
     10 C          62.5265   85.2161   10.3950 C.ar    1  UNL1        0.1223
     11 C          61.4055   85.9632    9.7352 C.ar    1  UNL1        0.0208
     12 C          61.2073   85.8616    8.2518 C.ar    1  UNL1        0.0128
     13 C          62.1300   85.0130    7.4282 C.ar    1  UNL1        0.0578
     14 CL         61.9317   84.9114    5.9449 Cl      1  UNL1       -0.0822
     15 C          63.2510   84.2659    8.0879 C.ar    1  UNL1        0.0128
     16 C          63.4492   84.3674    9.5713 C.ar    1  UNL1        0.0208
     17 C          61.8108   81.7892   14.5165 C.3     1  UNL1        0.0015
     18 C          62.0855   82.9757   13.6409 C.3     1  UNL1        0.0178
     19 O          63.5181   85.7238   17.8118 O.3     1  UNL1       -0.3535
     20 C          62.7490   86.7396   18.6035 C.3     1  UNL1        0.1740
     21 C          63.7607   87.8626   13.0824 C.3     1  UNL1        0.2277
     22 O          62.7375   88.9371   12.8623 O.3     1  UNL1       -0.4330
     23 C          62.7846   89.7742   11.6185 C.2     1  UNL1        0.4050
     24 O          61.9002   89.4384   10.4544 O.2     1  UNL1       -0.2262
     25 N          63.7161   90.9472   11.5387 N.am    1  UNL1       -0.2432
     26 C          64.6005   91.2831   12.7028 C.3     1  UNL1        0.1141
     27 C          65.5321   92.4560   12.6230 C.3     1  UNL1        0.0941
     28 N          65.5792   93.2932   11.3792 N.3     1  UNL1       -0.2676
     29 C          64.6948   92.9573   10.2152 C.3     1  UNL1        0.0941
     30 C          63.7632   91.7843   10.2950 C.3     1  UNL1        0.1141
     31 C          66.5107   94.4661   11.2995 C.3     1  UNL1        0.1043
     32 C          66.3324   95.6300   12.2288 C.3     1  UNL1        0.1544
     33 O          65.5529   96.8320   11.7843 O.3     1  UNL1       -0.3805
     34 H          66.0239   97.2732   11.0602 H       1  UNL1        0.2105
@<TRIPOS>BOND
     1    17    18    1
     2     1    18    1
     3     1     2    1
     4     2     3    1
     5     3    19    1
     6    19    20    1
     7     3     4    1
     8     4     5    1
     9     5    21    1
    10    21    22    1
    11    22    23    1
    12    23    24    2
    13    23    25   am
    14    25    26    1
    15    26    27    1
    16    27    28    1
    17    28    31    1
    18    31    32    1
    19    32    33    1
    20    28    29    1
    21    29    30    1
    22     5     6    1
    23     6     7    1
    24     7     8    2
    25     7     9    2
    26     7    10    1
    27    10    11   ar
    28    11    12   ar
    29    12    13   ar
    30    13    14    1
    31    13    15   ar
    32    15    16   ar
    33     6     1    1
    34    16    10   ar
    35    30    25    1
    36    33    34    1
