@<TRIPOS>MOLECULE
*****
 34 37 0 0 0
SMALL
GASTEIGER

@<TRIPOS>ATOM
      1 C          63.0864   89.4724   12.2154 C.ar    1  UNL1        0.1580
      2 C          64.0480   89.7431   13.3345 C.ar    1  UNL1        0.0694
      3 C          64.9970   90.9013   13.2443 C.ar    1  UNL1        0.1620
      4 F          65.9585   91.1720   14.3632 F       1  UNL1       -0.2026
      5 C          64.9843   91.7888   12.0350 C.ar    1  UNL1        0.1535
      6 C          64.0227   91.5182   10.9161 C.ar    1  UNL1        0.0370
      7 C          63.0738   90.3600   11.0063 C.ar    1  UNL1        0.0936
      8 CL         62.1122   90.0893    9.8872 Cl      1  UNL1       -0.0790
      9 S          65.9332   92.9470   11.9448 S.O2    1  UNL1        0.0769
     10 O          65.4127   93.4751   13.2487 O.2     1  UNL1       -0.1498
     11 O          66.4537   92.4190   10.6409 O.2     1  UNL1       -0.1498
     12 N          66.8821   94.1052   11.8546 N.pl3   1  UNL1       -0.1984
     13 H          67.5561   94.2454   12.5584 H       1  UNL1        0.1753
     14 C          66.8042   95.0499   10.6920 C.ar    1  UNL1        0.1542
     15 C          65.7177   96.0537   10.4430 C.ar    1  UNL1        0.0725
     16 S          66.0410   96.7808    9.1714 S.2     1  UNL1       -0.0625
     17 C          67.3273   96.2264    8.6346 C.ar    1  UNL1        0.1360
     18 N          67.7989   95.1566    9.5744 N.ar    1  UNL1       -0.2203
     19 O          62.1375   88.3143   12.3056 O.3     1  UNL1       -0.4529
     20 C          62.3034   85.9706   11.1966 C.ar    1  UNL1        0.0303
     21 C          62.8316   84.5667   11.1991 C.ar    1  UNL1        0.0111
     22 C          63.7222   84.1025   12.3132 C.ar    1  UNL1        0.0576
     23 CL         64.2505   82.6986   12.3157 Cl      1  UNL1       -0.0823
     24 C          64.0846   85.0422   13.4248 C.ar    1  UNL1        0.0145
     25 C          63.5564   86.4461   13.4223 C.ar    1  UNL1        0.0381
     26 C          62.6658   86.9103   12.3082 C.ar    1  UNL1        0.1423
     27 N          59.6638   87.8634   11.5127 N.pl3   1  UNL1       -0.2474
     28 C          60.1994   87.3049   10.2278 C.2     1  UNL1        0.3309
     29 N          59.6158   87.5183    8.8626 N.2     1  UNL1        0.0755
     30 N          60.4684   86.7802    7.8734 N.2     1  UNL1       -0.0367
     31 C          61.5789   86.1106    8.6274 C.2     1  UNL1        0.1389
     32 C          61.4127   86.4349   10.0824 C.3     1  UNL1        0.1780
     33 H          58.8568   88.4273   11.5059 H       1  UNL1        0.2882
     34 H          60.1192   87.6661   12.3630 H       1  UNL1        0.2882
@<TRIPOS>BOND
     1    27    28    1
     2    28    29    2
     3    29    30    1
     4    30    31    2
     5    31    32    1
     6    32    20    1
     7    20    21   ar
     8    21    22   ar
     9    22    23    1
    10    22    24   ar
    11    24    25   ar
    12    25    26   ar
    13    26    19    1
    14    19     1    1
    15     1     2   ar
    16     2     3   ar
    17     3     4    1
    18     3     5   ar
    19     5     9    1
    20     9    10    2
    21     9    11    2
    22     9    12    1
    23    12    14    1
    24    14    15   ar
    25    15    16   ar
    26    16    17   ar
    27    17    18   ar
    28     5     6   ar
    29     6     7   ar
    30     7     8    1
    31    32    28    1
    32    26    20   ar
    33     7     1   ar
    34    18    14   ar
    35    27    33    1
    36    27    34    1
    37    12    13    1
@<TRIPOS>MOLECULE
*****
 34 37 0 0 0
SMALL
GASTEIGER

@<TRIPOS>ATOM
      1 C          62.6384   88.2761   12.1711 C.ar    1  UNL1        0.1580
      2 C          63.6367   88.6099   13.2399 C.ar    1  UNL1        0.0694
      3 C          64.3627   89.9220   13.2045 C.ar    1  UNL1        0.1620
      4 F          65.3609   90.2559   14.2731 F       1  UNL1       -0.2026
      5 C          64.0905   90.9002   12.1004 C.ar    1  UNL1        0.1535
      6 C          63.0923   90.5664   11.0317 C.ar    1  UNL1        0.0370
      7 C          62.3662   89.2543   11.0671 C.ar    1  UNL1        0.0936
      8 CL         61.3679   88.9204    9.9984 Cl      1  UNL1       -0.0790
      9 S          64.8165   92.2123   12.0650 S.O2    1  UNL1        0.0769
     10 O          64.8349   92.2426   13.5645 O.2     1  UNL1       -0.1498
     11 O          64.7982   92.1820   10.5654 O.2     1  UNL1       -0.1498
     12 N          65.5426   93.5244   12.0296 N.pl3   1  UNL1       -0.1984
     13 H          65.3918   94.1898   12.7393 H       1  UNL1        0.1753
     14 C          66.4985   93.8228   10.9127 C.ar    1  UNL1        0.1542
     15 C          66.4664   95.0306   10.0237 C.ar    1  UNL1        0.0725
     16 S          67.6023   94.9200    9.0503 S.2     1  UNL1       -0.0625
     17 C          68.3364   93.6438    9.3377 C.ar    1  UNL1        0.1360
     18 N          67.6542   92.9657   10.4886 N.ar    1  UNL1       -0.2203
     19 O          61.9123   86.9640   12.2065 O.3     1  UNL1       -0.4529
     20 C          63.1379   84.7077   12.6036 C.ar    1  UNL1        0.0303
     21 C          63.7939   83.4727   12.0610 C.ar    1  UNL1        0.0111
     22 C          63.8804   83.2589   10.5789 C.ar    1  UNL1        0.0576
     23 CL         64.5364   82.0238   10.0363 Cl      1  UNL1       -0.0823
     24 C          63.3109   84.2801    9.6393 C.ar    1  UNL1        0.0145
     25 C          62.6549   85.5151   10.1818 C.ar    1  UNL1        0.0381
     26 C          62.5684   85.7289   11.6640 C.ar    1  UNL1        0.1423
     27 N          65.5984   85.5770   14.5631 N.pl3   1  UNL1       -0.2474
     28 C          64.1823   85.3211   14.9864 C.2     1  UNL1        0.3309
     29 N          63.6486   85.4200   16.3848 N.2     1  UNL1        0.0755
     30 N          62.1877   85.0815   16.3483 N.2     1  UNL1       -0.0367
     31 C          61.8186   84.7735   14.9275 C.2     1  UNL1        0.1389
     32 C          63.0513   84.9216   14.0858 C.3     1  UNL1        0.1780
     33 H          66.2729   85.8360   15.2319 H       1  UNL1        0.2882
     34 H          65.8533   85.4859   13.6166 H       1  UNL1        0.2882
@<TRIPOS>BOND
     1    27    28    1
     2    28    29    2
     3    29    30    1
     4    30    31    2
     5    31    32    1
     6    32    20    1
     7    20    21   ar
     8    21    22   ar
     9    22    23    1
    10    22    24   ar
    11    24    25   ar
    12    25    26   ar
    13    26    19    1
    14    19     1    1
    15     1     2   ar
    16     2     3   ar
    17     3     4    1
    18     3     5   ar
    19     5     9    1
    20     9    10    2
    21     9    11    2
    22     9    12    1
    23    12    14    1
    24    14    15   ar
    25    15    16   ar
    26    16    17   ar
    27    17    18   ar
    28     5     6   ar
    29     6     7   ar
    30     7     8    1
    31    32    28    1
    32    26    20   ar
    33     7     1   ar
    34    18    14   ar
    35    27    33    1
    36    27    34    1
    37    12    13    1
@<TRIPOS>MOLECULE
*****
 34 37 0 0 0
SMALL
GASTEIGER

@<TRIPOS>ATOM
      1 C          63.1688   89.2698   12.3019 C.ar    1  UNL1        0.1580
      2 C          63.1053   90.2383   11.1581 C.ar    1  UNL1        0.0694
      3 C          63.9928   91.4475   11.1492 C.ar    1  UNL1        0.1620
      4 F          63.9294   92.4160   10.0055 F       1  UNL1       -0.2026
      5 C          64.9438   91.6883   12.2840 C.ar    1  UNL1        0.1535
      6 C          65.0072   90.7199   13.4277 C.ar    1  UNL1        0.0370
      7 C          64.1197   89.5106   13.4367 C.ar    1  UNL1        0.0936
      8 CL         64.1832   88.5422   14.5804 Cl      1  UNL1       -0.0790
      9 S          65.8313   92.8976   12.2751 S.O2    1  UNL1        0.0769
     10 O          65.3957   93.2275   13.6720 O.2     1  UNL1       -0.1498
     11 O          66.2668   92.5676   10.8782 O.2     1  UNL1       -0.1498
     12 N          66.7188   94.1068   12.2662 N.pl3   1  UNL1       -0.1984
     13 H          67.3085   94.2903   13.0329 H       1  UNL1        0.1753
     14 C          66.7078   95.0365   11.0890 C.ar    1  UNL1        0.1542
     15 C          65.7788   96.1975   10.8912 C.ar    1  UNL1        0.0725
     16 S          66.1206   96.8470    9.5830 S.2     1  UNL1       -0.0625
     17 C          67.2609   96.0874    8.9724 C.ar    1  UNL1        0.1360
     18 N          67.6237   94.9685    9.9031 N.ar    1  UNL1       -0.2203
     19 O          62.2813   88.0606   12.3108 O.3     1  UNL1       -0.4529
     20 C          61.5425   86.3315   10.5179 C.ar    1  UNL1        0.0303
     21 C          60.7346   85.9852    9.3024 C.ar    1  UNL1        0.0111
     22 C          59.8577   87.0214    8.6645 C.ar    1  UNL1        0.0576
     23 CL         59.0497   86.6751    7.4490 Cl      1  UNL1       -0.0823
     24 C          59.7886   88.4041    9.2420 C.ar    1  UNL1        0.0145
     25 C          60.5964   88.7505   10.4574 C.ar    1  UNL1        0.0381
     26 C          61.4734   87.7142   11.0953 C.ar    1  UNL1        0.1423
     27 N          63.5736   84.3114    8.9547 N.pl3   1  UNL1       -0.2474
     28 C          63.3531   84.3667   10.4374 C.2     1  UNL1        0.3309
     29 N          64.0274   83.5032   11.4619 N.2     1  UNL1        0.0755
     30 N          63.5106   83.8980   12.8136 N.2     1  UNL1       -0.0367
     31 C          62.5169   85.0056   12.6244 C.2     1  UNL1        0.1389
     32 C          62.4195   85.2952   11.1559 C.3     1  UNL1        0.1780
     33 H          64.2108   83.6637    8.5757 H       1  UNL1        0.2882
     34 H          63.0811   84.9227    8.3607 H       1  UNL1        0.2882
@<TRIPOS>BOND
     1    27    28    1
     2    28    29    2
     3    29    30    1
     4    30    31    2
     5    31    32    1
     6    32    20    1
     7    20    21   ar
     8    21    22   ar
     9    22    23    1
    10    22    24   ar
    11    24    25   ar
    12    25    26   ar
    13    26    19    1
    14    19     1    1
    15     1     2   ar
    16     2     3   ar
    17     3     4    1
    18     3     5   ar
    19     5     9    1
    20     9    10    2
    21     9    11    2
    22     9    12    1
    23    12    14    1
    24    14    15   ar
    25    15    16   ar
    26    16    17   ar
    27    17    18   ar
    28     5     6   ar
    29     6     7   ar
    30     7     8    1
    31    32    28    1
    32    26    20   ar
    33     7     1   ar
    34    18    14   ar
    35    27    33    1
    36    27    34    1
    37    12    13    1
@<TRIPOS>MOLECULE
*****
 34 37 0 0 0
SMALL
GASTEIGER

@<TRIPOS>ATOM
      1 C          63.6822   89.6230   14.3029 C.ar    1  UNL1        0.1580
      2 C          63.7229   88.6520   13.1602 C.ar    1  UNL1        0.0694
      3 C          63.7522   87.1768   13.4303 C.ar    1  UNL1        0.1620
      4 F          63.7928   86.2059   12.2877 F       1  UNL1       -0.2026
      5 C          63.7407   86.6726   14.8430 C.ar    1  UNL1        0.1535
      6 C          63.7001   87.6435   15.9856 C.ar    1  UNL1        0.0370
      7 C          63.6708   89.1187   15.7155 C.ar    1  UNL1        0.0936
      8 CL         63.6301   90.0897   16.8582 Cl      1  UNL1       -0.0790
      9 S          63.7700   85.1974   15.1130 S.O2    1  UNL1        0.0769
     10 O          62.2966   85.2195   15.3935 O.2     1  UNL1       -0.1498
     11 O          65.2434   85.1753   14.8326 O.2     1  UNL1       -0.1498
     12 N          63.7993   83.7222   15.3831 N.pl3   1  UNL1       -0.1984
     13 H          64.1488   83.3854   16.2396 H       1  UNL1        0.1753
     14 C          63.2959   82.7601   14.3481 C.ar    1  UNL1        0.1542
     15 C          63.5514   82.8396   12.8721 C.ar    1  UNL1        0.0725
     16 S          62.8621   81.6783   12.2191 S.2     1  UNL1       -0.0625
     17 C          62.1805   80.8812   13.2916 C.ar    1  UNL1        0.1360
     18 N          62.4486   81.5498   14.6073 N.ar    1  UNL1       -0.2203
     19 O          63.6530   91.0982   14.0329 O.3     1  UNL1       -0.4529
     20 C          65.7690   92.2839   13.1020 C.ar    1  UNL1        0.0303
     21 C          66.5379   92.8499   11.9451 C.ar    1  UNL1        0.0111
     22 C          65.9596   92.7963   10.5622 C.ar    1  UNL1        0.0576
     23 CL         66.7285   93.3624    9.4052 Cl      1  UNL1       -0.0823
     24 C          64.6124   92.1767   10.3361 C.ar    1  UNL1        0.0145
     25 C          63.8435   91.6107   11.4929 C.ar    1  UNL1        0.0381
     26 C          64.4219   91.6643   12.8759 C.ar    1  UNL1        0.1423
     27 N          68.9062   91.8471   13.8877 N.pl3   1  UNL1       -0.2474
     28 C          67.7893   92.1367   14.8461 C.2     1  UNL1        0.3309
     29 N          67.9183   92.2764   16.3340 N.2     1  UNL1        0.0755
     30 N          66.5561   92.5635   16.8925 N.2     1  UNL1       -0.0367
     31 C          65.5852   92.6012   15.7498 C.2     1  UNL1        0.1389
     32 C          66.3474   92.3375   14.4850 C.3     1  UNL1        0.1780
     33 H          69.8246   91.7306   14.2227 H       1  UNL1        0.2882
     34 H          68.7209   91.7735   12.9236 H       1  UNL1        0.2882
@<TRIPOS>BOND
     1    27    28    1
     2    28    29    2
     3    29    30    1
     4    30    31    2
     5    31    32    1
     6    32    20    1
     7    20    21   ar
     8    21    22   ar
     9    22    23    1
    10    22    24   ar
    11    24    25   ar
    12    25    26   ar
    13    26    19    1
    14    19     1    1
    15     1     2   ar
    16     2     3   ar
    17     3     4    1
    18     3     5   ar
    19     5     9    1
    20     9    10    2
    21     9    11    2
    22     9    12    1
    23    12    14    1
    24    14    15   ar
    25    15    16   ar
    26    16    17   ar
    27    17    18   ar
    28     5     6   ar
    29     6     7   ar
    30     7     8    1
    31    32    28    1
    32    26    20   ar
    33     7     1   ar
    34    18    14   ar
    35    27    33    1
    36    27    34    1
    37    12    13    1
@<TRIPOS>MOLECULE
*****
 34 37 0 0 0
SMALL
GASTEIGER

@<TRIPOS>ATOM
      1 C          63.0768   89.2995   12.4641 C.ar    1  UNL1        0.1580
      2 C          63.0153   90.1783   11.2499 C.ar    1  UNL1        0.0694
      3 C          63.9469   91.3469   11.1220 C.ar    1  UNL1        0.1620
      4 F          63.8854   92.2257    9.9080 F       1  UNL1       -0.2026
      5 C          64.9401   91.6367   12.2082 C.ar    1  UNL1        0.1535
      6 C          65.0016   90.7580   13.4222 C.ar    1  UNL1        0.0370
      7 C          64.0699   89.5894   13.5501 C.ar    1  UNL1        0.0936
      8 CL         64.1314   88.7106   14.7643 Cl      1  UNL1       -0.0790
      9 S          65.8717   92.8054   12.0802 S.O2    1  UNL1        0.0769
     10 O          65.4618   93.2813   13.4424 O.2     1  UNL1       -0.1498
     11 O          66.2817   92.3294   10.7181 O.2     1  UNL1       -0.1498
     12 N          66.8034   93.9740   11.9523 N.pl3   1  UNL1       -0.1984
     13 H          67.4545   94.1648   12.6656 H       1  UNL1        0.1753
     14 C          66.7429   94.8519   10.7374 C.ar    1  UNL1        0.1542
     15 C          65.6309   95.7952   10.3858 C.ar    1  UNL1        0.0725
     16 S          65.9844   96.4669    9.0921 S.2     1  UNL1       -0.0625
     17 C          67.3150   95.9387    8.6441 C.ar    1  UNL1        0.1360
     18 N          67.7837   94.9406    9.6610 N.ar    1  UNL1       -0.2203
     19 O          62.1451   88.1309   12.5920 O.3     1  UNL1       -0.4529
     20 C          62.2493   86.0420   11.0506 C.ar    1  UNL1        0.0303
     21 C          62.7459   84.6535   10.7763 C.ar    1  UNL1        0.0111
     22 C          63.6349   83.9652   11.7692 C.ar    1  UNL1        0.0576
     23 CL         64.1315   82.5765   11.4949 Cl      1  UNL1       -0.0823
     24 C          64.0274   84.6654   13.0363 C.ar    1  UNL1        0.0145
     25 C          63.5308   86.0540   13.3106 C.ar    1  UNL1        0.0381
     26 C          62.6418   86.7423   12.3178 C.ar    1  UNL1        0.1423
     27 N          59.7018   87.9545   11.7596 N.pl3   1  UNL1       -0.2474
     28 C          60.1893   87.6095   10.3837 C.2     1  UNL1        0.3309
     29 N          59.5914   88.0829    9.0920 N.2     1  UNL1        0.0755
     30 N          60.3928   87.4964    7.9677 N.2     1  UNL1       -0.0367
     31 C          61.4860   86.6606    8.5646 C.2     1  UNL1        0.1389
     32 C          61.3602   86.7304   10.0577 C.3     1  UNL1        0.1780
     33 H          58.9205   88.5429   11.8719 H       1  UNL1        0.2882
     34 H          60.1632   87.5926   12.5504 H       1  UNL1        0.2882
@<TRIPOS>BOND
     1    27    28    1
     2    28    29    2
     3    29    30    1
     4    30    31    2
     5    31    32    1
     6    32    20    1
     7    20    21   ar
     8    21    22   ar
     9    22    23    1
    10    22    24   ar
    11    24    25   ar
    12    25    26   ar
    13    26    19    1
    14    19     1    1
    15     1     2   ar
    16     2     3   ar
    17     3     4    1
    18     3     5   ar
    19     5     9    1
    20     9    10    2
    21     9    11    2
    22     9    12    1
    23    12    14    1
    24    14    15   ar
    25    15    16   ar
    26    16    17   ar
    27    17    18   ar
    28     5     6   ar
    29     6     7   ar
    30     7     8    1
    31    32    28    1
    32    26    20   ar
    33     7     1   ar
    34    18    14   ar
    35    27    33    1
    36    27    34    1
    37    12    13    1
@<TRIPOS>MOLECULE
*****
 34 37 0 0 0
SMALL
GASTEIGER

@<TRIPOS>ATOM
      1 C          63.3894   88.0226   12.9035 C.ar    1  UNL1        0.1580
      2 C          63.2058   89.2641   12.0818 C.ar    1  UNL1        0.0694
      3 C          63.8262   90.5557   12.5254 C.ar    1  UNL1        0.1620
      4 F          63.6427   91.7971   11.7038 F       1  UNL1       -0.2026
      5 C          64.6303   90.6058   13.7907 C.ar    1  UNL1        0.1535
      6 C          64.8139   89.3644   14.6124 C.ar    1  UNL1        0.0370
      7 C          64.1934   88.0728   14.1687 C.ar    1  UNL1        0.0936
      8 CL         64.3770   86.8313   14.9904 Cl      1  UNL1       -0.0790
      9 S          65.2508   91.8974   14.2344 S.O2    1  UNL1        0.0769
     10 O          66.1519   91.8763   13.0354 O.2     1  UNL1       -0.1498
     11 O          64.3497   91.9185   15.4334 O.2     1  UNL1       -0.1498
     12 N          65.8713   93.1890   14.6780 N.pl3   1  UNL1       -0.1984
     13 H          65.3668   94.0306   14.5977 H       1  UNL1        0.1753
     14 C          67.2604   93.1982   15.2441 C.ar    1  UNL1        0.1542
     15 C          67.9474   92.0450   15.9133 C.ar    1  UNL1        0.0725
     16 S          69.3180   92.4963   16.3231 S.2     1  UNL1       -0.0625
     17 C          69.4780   93.9286   15.9071 C.ar    1  UNL1        0.1360
     18 N          68.2063   94.3624   15.2402 N.ar    1  UNL1       -0.2203
     19 O          62.7689   86.7311   12.4598 O.3     1  UNL1       -0.4529
     20 C          62.0181   85.5415   10.2755 C.ar    1  UNL1        0.0303
     21 C          61.1612   85.5048    9.0449 C.ar    1  UNL1        0.0111
     22 C          60.1982   86.6210    8.7681 C.ar    1  UNL1        0.0576
     23 CL         59.3412   86.5844    7.5374 Cl      1  UNL1       -0.0823
     24 C          60.0920   87.7739    9.7218 C.ar    1  UNL1        0.0145
     25 C          60.9489   87.8106   10.9524 C.ar    1  UNL1        0.0381
     26 C          61.9119   86.6944   11.2292 C.ar    1  UNL1        0.1423
     27 N          62.4332   84.0321   13.1389 N.pl3   1  UNL1       -0.2474
     28 C          63.1720   83.7315   11.8685 C.2     1  UNL1        0.3309
     29 N          64.2312   82.6844   11.6912 N.2     1  UNL1        0.0755
     30 N          64.6951   82.7310   10.2655 N.2     1  UNL1       -0.0367
     31 C          63.9225   83.8069    9.5616 C.2     1  UNL1        0.1389
     32 C          62.9812   84.4253   10.5524 C.3     1  UNL1        0.1780
     33 H          62.6299   83.5191   13.9558 H       1  UNL1        0.2882
     34 H          61.7516   84.7423   13.1557 H       1  UNL1        0.2882
@<TRIPOS>BOND
     1    27    28    1
     2    28    29    2
     3    29    30    1
     4    30    31    2
     5    31    32    1
     6    32    20    1
     7    20    21   ar
     8    21    22   ar
     9    22    23    1
    10    22    24   ar
    11    24    25   ar
    12    25    26   ar
    13    26    19    1
    14    19     1    1
    15     1     2   ar
    16     2     3   ar
    17     3     4    1
    18     3     5   ar
    19     5     9    1
    20     9    10    2
    21     9    11    2
    22     9    12    1
    23    12    14    1
    24    14    15   ar
    25    15    16   ar
    26    16    17   ar
    27    17    18   ar
    28     5     6   ar
    29     6     7   ar
    30     7     8    1
    31    32    28    1
    32    26    20   ar
    33     7     1   ar
    34    18    14   ar
    35    27    33    1
    36    27    34    1
    37    12    13    1
@<TRIPOS>MOLECULE
*****
 34 37 0 0 0
SMALL
GASTEIGER

@<TRIPOS>ATOM
      1 C          62.6481   88.1005   12.2516 C.ar    1  UNL1        0.1580
      2 C          63.5766   88.2109   13.4246 C.ar    1  UNL1        0.0694
      3 C          64.3610   89.4705   13.6441 C.ar    1  UNL1        0.1620
      4 F          65.2895   89.5810   14.8170 F       1  UNL1       -0.2026
      5 C          64.2170   90.6196   12.6907 C.ar    1  UNL1        0.1535
      6 C          63.2886   90.5090   11.5178 C.ar    1  UNL1        0.0370
      7 C          62.5041   89.2495   11.2982 C.ar    1  UNL1        0.0936
      8 CL         61.5757   89.1390   10.1253 Cl      1  UNL1       -0.0790
      9 S          65.0014   91.8791   12.9102 S.O2    1  UNL1        0.0769
     10 O          64.5204   91.9312   14.3300 O.2     1  UNL1       -0.1498
     11 O          65.4825   91.8270   11.4904 O.2     1  UNL1       -0.1498
     12 N          65.7859   93.1387   13.1298 N.pl3   1  UNL1       -0.1984
     13 H          65.4831   93.9839   12.7259 H       1  UNL1        0.1753
     14 C          67.0318   93.1104   13.9647 C.ar    1  UNL1        0.1542
     15 C          67.2369   93.8262   15.2669 C.ar    1  UNL1        0.0725
     16 S          68.6231   93.5196   15.7510 S.2     1  UNL1       -0.0625
     17 C          69.2747   92.6142   14.7481 C.ar    1  UNL1        0.1360
     18 N          68.2912   92.3613   13.6441 N.ar    1  UNL1       -0.2203
     19 O          61.8637   86.8409   12.0321 O.3     1  UNL1       -0.4529
     20 C          63.1094   84.5941   12.4196 C.ar    1  UNL1        0.0303
     21 C          63.7881   83.3738   11.8718 C.ar    1  UNL1        0.0111
     22 C          63.8998   83.1799   10.3887 C.ar    1  UNL1        0.0576
     23 CL         64.5785   81.9595    9.8408 Cl      1  UNL1       -0.0823
     24 C          63.3328   84.2062    9.4533 C.ar    1  UNL1        0.0145
     25 C          62.6541   85.4266   10.0010 C.ar    1  UNL1        0.0381
     26 C          62.5424   85.6205   11.4842 C.ar    1  UNL1        0.1423
     27 N          65.5740   85.2298   14.4621 N.pl3   1  UNL1       -0.2474
     28 C          64.1306   85.0803   14.8416 C.2     1  UNL1        0.3309
     29 N          63.5666   85.1968   16.2267 N.2     1  UNL1        0.0755
     30 N          62.0851   84.9765   16.1439 N.2     1  UNL1       -0.0367
     31 C          61.7336   84.7240   14.7077 C.2     1  UNL1        0.1389
     32 C          62.9978   84.7881   13.9029 C.3     1  UNL1        0.1780
     33 H          66.2475   85.4224   15.1539 H       1  UNL1        0.2882
     34 H          65.8479   85.1353   13.5212 H       1  UNL1        0.2882
@<TRIPOS>BOND
     1    27    28    1
     2    28    29    2
     3    29    30    1
     4    30    31    2
     5    31    32    1
     6    32    20    1
     7    20    21   ar
     8    21    22   ar
     9    22    23    1
    10    22    24   ar
    11    24    25   ar
    12    25    26   ar
    13    26    19    1
    14    19     1    1
    15     1     2   ar
    16     2     3   ar
    17     3     4    1
    18     3     5   ar
    19     5     9    1
    20     9    10    2
    21     9    11    2
    22     9    12    1
    23    12    14    1
    24    14    15   ar
    25    15    16   ar
    26    16    17   ar
    27    17    18   ar
    28     5     6   ar
    29     6     7   ar
    30     7     8    1
    31    32    28    1
    32    26    20   ar
    33     7     1   ar
    34    18    14   ar
    35    27    33    1
    36    27    34    1
    37    12    13    1
@<TRIPOS>MOLECULE
*****
 34 37 0 0 0
SMALL
GASTEIGER

@<TRIPOS>ATOM
      1 C          63.9594   90.8506   12.4409 C.ar    1  UNL1        0.1580
      2 C          64.0912   89.7201   13.4180 C.ar    1  UNL1        0.0694
      3 C          63.5300   88.3700   13.0829 C.ar    1  UNL1        0.1620
      4 F          63.6617   87.2395   14.0599 F       1  UNL1       -0.2026
      5 C          62.8370   88.1504   11.7708 C.ar    1  UNL1        0.1535
      6 C          62.7052   89.2809   10.7938 C.ar    1  UNL1        0.0370
      7 C          63.2665   90.6310   11.1288 C.ar    1  UNL1        0.0936
      8 CL         63.1347   91.7616   10.1518 Cl      1  UNL1       -0.0790
      9 S          62.2758   86.8003   11.4357 S.O2    1  UNL1        0.0769
     10 O          61.4147   87.4213   10.3760 O.2     1  UNL1       -0.1498
     11 O          63.1368   86.1794   12.4954 O.2     1  UNL1       -0.1498
     12 N          61.7145   85.4502   11.1006 N.pl3   1  UNL1       -0.1984
     13 H          60.7539   85.3500   10.9097 H       1  UNL1        0.1753
     14 C          62.6169   84.2528   11.0564 C.ar    1  UNL1        0.1542
     15 C          62.6581   83.1421   12.0638 C.ar    1  UNL1        0.0725
     16 S          63.7031   82.1587   11.6271 S.2     1  UNL1       -0.0625
     17 C          64.3079   82.6617   10.3498 C.ar    1  UNL1        0.1360
     18 N          63.6366   83.9559    9.9972 N.ar    1  UNL1       -0.2203
     19 O          64.5206   92.2007   12.7760 O.3     1  UNL1       -0.4529
     20 C          67.0695   92.5627   13.1258 C.ar    1  UNL1        0.0303
     21 C          68.2516   92.6771   14.0420 C.ar    1  UNL1        0.0111
     22 C          68.0670   92.5441   15.5246 C.ar    1  UNL1        0.0576
     23 CL         69.2492   92.6585   16.4409 Cl      1  UNL1       -0.0823
     24 C          66.7003   92.2966   16.0911 C.ar    1  UNL1        0.0145
     25 C          65.5182   92.1821   15.1749 C.ar    1  UNL1        0.0381
     26 C          65.7028   92.3152   13.6923 C.ar    1  UNL1        0.1423
     27 N          65.6072   94.7539   11.1997 N.pl3   1  UNL1       -0.2474
     28 C          66.5819   93.7029   10.7578 C.2     1  UNL1        0.3309
     29 N          67.0556   93.4746    9.3531 N.2     1  UNL1        0.0755
     30 N          68.0206   92.3262    9.3701 N.2     1  UNL1       -0.0367
     31 C          68.1432   91.8449   10.7855 C.2     1  UNL1        0.1389
     32 C          67.2541   92.6957   11.6431 C.3     1  UNL1        0.1780
     33 H          65.2176   95.3724   10.5402 H       1  UNL1        0.2882
     34 H          65.3570   94.8252   12.1492 H       1  UNL1        0.2882
@<TRIPOS>BOND
     1    27    28    1
     2    28    29    2
     3    29    30    1
     4    30    31    2
     5    31    32    1
     6    32    20    1
     7    20    21   ar
     8    21    22   ar
     9    22    23    1
    10    22    24   ar
    11    24    25   ar
    12    25    26   ar
    13    26    19    1
    14    19     1    1
    15     1     2   ar
    16     2     3   ar
    17     3     4    1
    18     3     5   ar
    19     5     9    1
    20     9    10    2
    21     9    11    2
    22     9    12    1
    23    12    14    1
    24    14    15   ar
    25    15    16   ar
    26    16    17   ar
    27    17    18   ar
    28     5     6   ar
    29     6     7   ar
    30     7     8    1
    31    32    28    1
    32    26    20   ar
    33     7     1   ar
    34    18    14   ar
    35    27    33    1
    36    27    34    1
    37    12    13    1
@<TRIPOS>MOLECULE
*****
 34 37 0 0 0
SMALL
GASTEIGER

@<TRIPOS>ATOM
      1 C          63.2595   88.9488   12.4030 C.ar    1  UNL1        0.1580
      2 C          63.1490   89.9030   11.2508 C.ar    1  UNL1        0.0694
      3 C          63.9381   91.1787   11.2552 C.ar    1  UNL1        0.1620
      4 F          63.8276   92.1329   10.1032 F       1  UNL1       -0.2026
      5 C          64.8376   91.5002   12.4118 C.ar    1  UNL1        0.1535
      6 C          64.9480   90.5460   13.5639 C.ar    1  UNL1        0.0370
      7 C          64.1590   89.2703   13.5595 C.ar    1  UNL1        0.0936
      8 CL         64.2695   88.3161   14.7116 Cl      1  UNL1       -0.0790
      9 S          65.6266   92.7759   12.4162 S.O2    1  UNL1        0.0769
     10 O          65.3642   92.9331   13.8847 O.2     1  UNL1       -0.1498
     11 O          65.8890   92.6187   10.9478 O.2     1  UNL1       -0.1498
     12 N          66.4156   94.0516   12.4207 N.pl3   1  UNL1       -0.1984
     13 H          66.8365   94.3672   13.2528 H       1  UNL1        0.1753
     14 C          66.5634   94.8464   11.1571 C.ar    1  UNL1        0.1542
     15 C          65.6850   95.9818   10.7219 C.ar    1  UNL1        0.0725
     16 S          66.1942   96.4825    9.4028 S.2     1  UNL1       -0.0625
     17 C          67.3873   95.6566    9.0228 C.ar    1  UNL1        0.1360
     18 N          67.6155   94.6455   10.1070 N.ar    1  UNL1       -0.2203
     19 O          62.4705   87.6731   12.3986 O.3     1  UNL1       -0.4529
     20 C          60.7888   87.5948   10.4197 C.ar    1  UNL1        0.0303
     21 C          60.3388   86.9958    9.1203 C.ar    1  UNL1        0.0111
     22 C          61.1206   85.8760    8.5001 C.ar    1  UNL1        0.0576
     23 CL         60.6707   85.2769    7.2005 Cl      1  UNL1       -0.0823
     24 C          62.3524   85.3552    9.1794 C.ar    1  UNL1        0.0145
     25 C          62.8024   85.9542   10.4788 C.ar    1  UNL1        0.0381
     26 C          62.0205   87.0740   11.0990 C.ar    1  UNL1        0.1423
     27 N          60.5003   90.6207    9.2320 N.pl3   1  UNL1       -0.2474
     28 C          59.8743   90.1055   10.4941 C.2     1  UNL1        0.3309
     29 N          59.0059   90.8907   11.4317 N.2     1  UNL1        0.0755
     30 N          58.6017   89.9852   12.5572 N.2     1  UNL1       -0.0367
     31 C          59.2203   88.6403   12.3151 C.2     1  UNL1        0.1389
     32 C          60.0069   88.7147   11.0400 C.3     1  UNL1        0.1780
     33 H          60.3541   91.5542    8.9555 H       1  UNL1        0.2882
     34 H          61.0574   90.0254    8.6802 H       1  UNL1        0.2882
@<TRIPOS>BOND
     1    27    28    1
     2    28    29    2
     3    29    30    1
     4    30    31    2
     5    31    32    1
     6    32    20    1
     7    20    21   ar
     8    21    22   ar
     9    22    23    1
    10    22    24   ar
    11    24    25   ar
    12    25    26   ar
    13    26    19    1
    14    19     1    1
    15     1     2   ar
    16     2     3   ar
    17     3     4    1
    18     3     5   ar
    19     5     9    1
    20     9    10    2
    21     9    11    2
    22     9    12    1
    23    12    14    1
    24    14    15   ar
    25    15    16   ar
    26    16    17   ar
    27    17    18   ar
    28     5     6   ar
    29     6     7   ar
    30     7     8    1
    31    32    28    1
    32    26    20   ar
    33     7     1   ar
    34    18    14   ar
    35    27    33    1
    36    27    34    1
    37    12    13    1
