@<TRIPOS>MOLECULE
*****
 60 67 0 0 0
SMALL
GASTEIGER

@<TRIPOS>ATOM
      1 N          63.9906   86.3925   15.7622 N.3     1  UNL1       -0.1862
      2 C          64.1631   84.9320   16.0571 C.3     1  UNL1        0.1775
      3 C          63.9603   83.9183   14.9703 C.2     1  UNL1        0.2452
      4 O          64.1328   82.4577   15.2653 O.2     1  UNL1       -0.2732
      5 N          63.5850   84.3651   13.5884 N.am    1  UNL1       -0.2541
      6 C          63.3822   83.3514   12.5016 C.3     1  UNL1        0.1577
      7 C          63.0069   83.7982   11.1198 C.2     1  UNL1        0.2445
      8 O          62.8041   82.7845   10.0329 O.2     1  UNL1       -0.2731
      9 N          62.8343   85.2588   10.8248 N.am    1  UNL1       -0.2705
     10 C          63.0371   86.2725   11.9116 C.3     1  UNL1        0.1359
     11 C          63.4125   85.8256   13.2935 C.3     1  UNL1        0.1908
     12 N          63.6153   86.8393   14.3803 N.am    1  UNL1       -0.1863
     13 C          63.4427   88.2999   14.0853 C.2     1  UNL1        0.3191
     14 O          63.0674   88.7468   12.7035 O.2     1  UNL1       -0.2512
     15 N          63.6455   89.3137   15.1722 N.am    1  UNL1       -0.2836
     16 H          63.8918   89.0204   16.0791 H       1  UNL1        0.1513
     17 C          64.1934   87.4062   16.8490 C.3     1  UNL1        0.1188
     18 C          62.5162   86.6722   18.6924 C.2     1  UNL1       -0.0034
     19 C          63.0708   87.7332   17.7887 C.2     1  UNL1       -0.0071
     20 C          63.5547   81.8909   12.7965 C.3     1  UNL1        0.0556
     21 C          62.3778   81.0698   13.2335 C.ar    1  UNL1       -0.0198
     22 C          61.1556   81.7439   13.7828 C.ar    1  UNL1       -0.0011
     23 C          59.9788   80.9228   14.2198 C.ar    1  UNL1        0.0363
     24 C          60.0242   79.4278   14.1074 C.ar    1  UNL1        0.1337
     25 O          58.8473   78.6067   14.5444 O.3     1  UNL1       -0.5055
     26 C          61.2464   78.7536   13.5581 C.ar    1  UNL1        0.0363
     27 C          62.4233   79.5747   13.1211 C.ar    1  UNL1       -0.0011
     28 H          58.0838   79.0278   14.8875 H       1  UNL1        0.2922
     29 C          62.4590   85.7056    9.4430 C.3     1  UNL1        0.1217
     30 C          61.9273   87.0906    9.2210 C.ar    1  UNL1        0.0135
     31 C          62.4192   88.2273   10.0671 C.ar    1  UNL1       -0.0012
     32 C          61.8875   89.6122    9.8453 C.ar    1  UNL1       -0.0002
     33 C          60.8639   89.8604    8.7773 C.ar    1  UNL1        0.0016
     34 C          60.3719   88.7237    7.9313 C.ar    1  UNL1        0.0214
     35 C          59.3754   88.6638    6.8117 C.ar    1  UNL1        0.0721
     36 C          59.2912   87.2418    6.3417 C.ar    1  UNL1        0.0805
     37 N          60.2357   86.4230    7.1707 N.ar    1  UNL1       -0.3241
     38 C          60.4710   84.9473    7.0403 C.3     1  UNL1        0.1305
     39 C          60.9036   87.3388    8.1531 C.ar    1  UNL1        0.0577
     40 C          58.5993   89.8225    6.2592 C.2     1  UNL1        0.2506
     41 O          57.1731   90.0351    6.6724 O.2     1  UNL1       -0.2699
     42 N          59.2494   90.7684    5.2936 N.am    1  UNL1       -0.2732
     43 C          58.8100   91.9971    4.5539 C.3     1  UNL1        0.1114
     44 C          60.1688   92.1062    3.9279 C.3     1  UNL1        0.0975
     45 C          60.6082   90.8775    4.6676 C.3     1  UNL1        0.1114
     46 N          60.8190   93.0521    2.9623 N.3     1  UNL1       -0.2708
     47 C          62.1760   92.7397    2.4048 C.3     1  UNL1        0.0747
     48 C          62.8261   93.6857    1.4391 C.3     1  UNL1        0.0469
     49 C          62.1192   94.9441    1.0310 C.3     1  UNL1        0.1181
     50 C          60.7621   95.2565    1.5884 C.3     1  UNL1        0.0469
     51 C          60.1120   94.3106    2.5541 C.3     1  UNL1        0.0747
     52 O          62.7693   95.8901    0.0653 O.3     1  UNL1       -0.3535
     53 C          63.9466   95.4401   -0.7479 C.3     1  UNL1        0.1740
     54 C          63.4730   90.7742   14.8772 C.3     1  UNL1        0.1177
     55 C          64.5174   91.5089   14.0902 C.ar    1  UNL1       -0.0025
     56 C          65.7502   92.0206   14.7745 C.ar    1  UNL1       -0.0026
     57 C          66.7947   92.7553   13.9875 C.ar    1  UNL1       -0.0003
     58 C          66.6063   92.9783   12.5163 C.ar    1  UNL1       -0.0000
     59 C          65.3735   92.4666   11.8319 C.ar    1  UNL1       -0.0003
     60 C          64.3290   91.7319   12.6189 C.ar    1  UNL1       -0.0026
@<TRIPOS>BOND
     1    18    19    2
     2    19    17    1
     3    17     1    1
     4     1     2    1
     5     2     3    1
     6     3     4    2
     7     3     5   am
     8     5     6    1
     9     6    20    1
    10    20    21    1
    11    21    22   ar
    12    22    23   ar
    13    23    24   ar
    14    24    25    1
    15    24    26   ar
    16    26    27   ar
    17     6     7    1
    18     7     8    2
    19     7     9   am
    20     9    29    1
    21    29    30    1
    22    30    31   ar
    23    31    32   ar
    24    32    33   ar
    25    33    34   ar
    26    34    35   ar
    27    35    40    1
    28    40    41    2
    29    40    42   am
    30    42    43    1
    31    43    44    1
    32    44    46    1
    33    46    47    1
    34    47    48    1
    35    48    49    1
    36    49    52    1
    37    52    53    1
    38    49    50    1
    39    50    51    1
    40    44    45    1
    41    35    36   ar
    42    36    37   ar
    43    37    38    1
    44    37    39   ar
    45     9    10    1
    46    11    10    1
    47    11    12    1
    48    12    13   am
    49    13    14    2
    50    13    15   am
    51    15    54    1
    52    54    55    1
    53    55    56   ar
    54    56    57   ar
    55    57    58   ar
    56    58    59   ar
    57    59    60   ar
    58    12     1    1
    59    60    55   ar
    60    11     5    1
    61    27    21   ar
    62    39    30   ar
    63    39    34   ar
    64    45    42    1
    65    51    46    1
    66    25    28    1
    67    15    16    1
@<TRIPOS>MOLECULE
*****
 60 67 0 0 0
SMALL
GASTEIGER

@<TRIPOS>ATOM
      1 N          65.3681   89.4327   14.6679 N.3     1  UNL1       -0.1862
      2 C          65.5541   88.1919   15.4900 C.3     1  UNL1        0.1775
      3 C          64.8349   86.9298   15.1162 C.2     1  UNL1        0.2452
      4 O          65.0209   85.6889   15.9383 O.2     1  UNL1       -0.2732
      5 N          63.9297   86.9084   13.9203 N.am    1  UNL1       -0.2541
      6 C          63.2105   85.6463   13.5465 C.3     1  UNL1        0.1577
      7 C          62.3053   85.6249   12.3506 C.2     1  UNL1        0.2445
      8 O          61.5861   84.3628   11.9768 O.2     1  UNL1       -0.2731
      9 N          62.1192   86.8657   11.5285 N.am    1  UNL1       -0.2705
     10 C          62.8384   88.1279   11.9023 C.3     1  UNL1        0.1359
     11 C          63.7437   88.1492   13.0983 C.3     1  UNL1        0.1908
     12 N          64.4629   89.4113   13.4721 N.am    1  UNL1       -0.1863
     13 C          64.2768   90.6522   12.6500 C.2     1  UNL1        0.3191
     14 O          63.3716   90.6308   11.4541 O.2     1  UNL1       -0.2512
     15 N          64.9960   91.9143   13.0238 N.am    1  UNL1       -0.2836
     16 H          65.5901   91.9283   13.8087 H       1  UNL1        0.1513
     17 C          66.0873   90.6948   15.0418 C.3     1  UNL1        0.1188
     18 C          68.1328   92.2672   14.7363 C.2     1  UNL1       -0.0034
     19 C          67.5002   90.9151   14.5891 C.2     1  UNL1       -0.0071
     20 C          63.3965   84.4055   14.3685 C.3     1  UNL1        0.0556
     21 C          63.1870   83.0561   13.7477 C.ar    1  UNL1       -0.0198
     22 C          62.1469   82.1286   14.3026 C.ar    1  UNL1       -0.0011
     23 C          61.9375   80.7792   13.6818 C.ar    1  UNL1        0.0363
     24 C          62.7681   80.3574   12.5062 C.ar    1  UNL1        0.1337
     25 O          62.5586   79.0081   11.8854 O.3     1  UNL1       -0.5055
     26 C          63.8082   81.2850   11.9513 C.ar    1  UNL1        0.0363
     27 C          64.0177   82.6343   12.5720 C.ar    1  UNL1       -0.0011
     28 H          61.9089   78.4286   12.2320 H       1  UNL1        0.2922
     29 C          61.2140   86.8444   10.3327 C.3     1  UNL1        0.1217
     30 C          60.5790   88.1147    9.8499 C.ar    1  UNL1        0.0135
     31 C          60.4083   89.2719   10.7890 C.ar    1  UNL1       -0.0012
     32 C          59.7733   90.5422   10.3063 C.ar    1  UNL1       -0.0002
     33 C          59.3090   90.6553    8.8845 C.ar    1  UNL1        0.0016
     34 C          59.4797   89.4982    7.9454 C.ar    1  UNL1        0.0214
     35 C          59.1222   89.3175    6.4999 C.ar    1  UNL1        0.0721
     36 C          59.5363   87.9356    6.0892 C.ar    1  UNL1        0.0805
     37 N          60.1497   87.2622    7.2809 N.ar    1  UNL1       -0.3241
     38 C          60.7013   85.8678    7.3188 C.3     1  UNL1        0.1305
     39 C          60.1147   88.2279    8.4281 C.ar    1  UNL1        0.0577
     40 C          58.4659   90.3395    5.6195 C.2     1  UNL1        0.2506
     41 O          56.9753   90.5053    5.6453 O.2     1  UNL1       -0.2699
     42 N          59.3001   91.1957    4.7134 N.am    1  UNL1       -0.2732
     43 C          59.0136   92.2859    3.7239 C.3     1  UNL1        0.1114
     44 C          60.4800   92.4064    3.4320 C.3     1  UNL1        0.0975
     45 C          60.7666   91.3162    4.4215 C.3     1  UNL1        0.1114
     46 N          61.3143   93.2625    2.5259 N.3     1  UNL1       -0.2708
     47 C          60.7523   94.5384    1.9724 C.3     1  UNL1        0.0747
     48 C          61.5866   95.3945    1.0663 C.3     1  UNL1        0.0469
     49 C          62.9828   94.9748    0.7137 C.3     1  UNL1        0.1181
     50 C          63.5448   93.6990    1.2672 C.3     1  UNL1        0.0469
     51 C          62.7105   92.8428    2.1733 C.3     1  UNL1        0.0747
     52 O          63.8171   95.8309   -0.1924 O.3     1  UNL1       -0.3535
     53 C          65.3118   95.7054   -0.1763 C.3     1  UNL1        0.1740
     54 C          64.8100   93.1551   12.2018 C.3     1  UNL1        0.1177
     55 C          65.8469   93.5479   11.1915 C.ar    1  UNL1       -0.0025
     56 C          65.9417   94.9715   10.7287 C.ar    1  UNL1       -0.0026
     57 C          66.9785   95.3643    9.7184 C.ar    1  UNL1       -0.0003
     58 C          67.9206   94.3334    9.1709 C.ar    1  UNL1       -0.0000
     59 C          67.8258   92.9097    9.6337 C.ar    1  UNL1       -0.0003
     60 C          66.7890   92.5169   10.6440 C.ar    1  UNL1       -0.0026
@<TRIPOS>BOND
     1    18    19    2
     2    19    17    1
     3    17     1    1
     4     1     2    1
     5     2     3    1
     6     3     4    2
     7     3     5   am
     8     5     6    1
     9     6    20    1
    10    20    21    1
    11    21    22   ar
    12    22    23   ar
    13    23    24   ar
    14    24    25    1
    15    24    26   ar
    16    26    27   ar
    17     6     7    1
    18     7     8    2
    19     7     9   am
    20     9    29    1
    21    29    30    1
    22    30    31   ar
    23    31    32   ar
    24    32    33   ar
    25    33    34   ar
    26    34    35   ar
    27    35    40    1
    28    40    41    2
    29    40    42   am
    30    42    43    1
    31    43    44    1
    32    44    46    1
    33    46    47    1
    34    47    48    1
    35    48    49    1
    36    49    52    1
    37    52    53    1
    38    49    50    1
    39    50    51    1
    40    44    45    1
    41    35    36   ar
    42    36    37   ar
    43    37    38    1
    44    37    39   ar
    45     9    10    1
    46    11    10    1
    47    11    12    1
    48    12    13   am
    49    13    14    2
    50    13    15   am
    51    15    54    1
    52    54    55    1
    53    55    56   ar
    54    56    57   ar
    55    57    58   ar
    56    58    59   ar
    57    59    60   ar
    58    12     1    1
    59    60    55   ar
    60    11     5    1
    61    27    21   ar
    62    39    30   ar
    63    39    34   ar
    64    45    42    1
    65    51    46    1
    66    25    28    1
    67    15    16    1
@<TRIPOS>MOLECULE
*****
 60 67 0 0 0
SMALL
GASTEIGER

@<TRIPOS>ATOM
      1 N          62.2788   94.7192   -3.2033 N.3     1  UNL1       -0.1862
      2 C          61.1775   94.2960   -4.1295 C.3     1  UNL1        0.1775
      3 C          59.8866   93.7747   -3.5710 C.2     1  UNL1        0.2452
      4 O          58.7853   93.3515   -4.4973 O.2     1  UNL1       -0.2732
      5 N          59.6971   93.6766   -2.0863 N.am    1  UNL1       -0.2541
      6 C          58.4063   93.1553   -1.5278 C.3     1  UNL1        0.1577
      7 C          58.2167   93.0572   -0.0431 C.2     1  UNL1        0.2445
      8 O          56.9259   92.5358    0.5154 O.2     1  UNL1       -0.2731
      9 N          59.3181   93.4804    0.8832 N.am    1  UNL1       -0.2705
     10 C          60.6090   94.0017    0.3247 C.3     1  UNL1        0.1359
     11 C          60.7985   94.0998   -1.1601 C.3     1  UNL1        0.1908
     12 N          62.0893   94.6211   -1.7186 N.am    1  UNL1       -0.1863
     13 C          63.1907   95.0443   -0.7923 C.2     1  UNL1        0.3191
     14 O          63.0012   94.9462    0.6924 O.2     1  UNL1       -0.2512
     15 N          64.4815   95.5656   -1.3508 N.am    1  UNL1       -0.2836
     16 H          64.6059   95.6300   -2.3253 H       1  UNL1        0.1513
     17 C          63.5697   95.2405   -3.7618 C.3     1  UNL1        0.1188
     18 C          64.4983   92.8626   -4.2446 C.2     1  UNL1       -0.0034
     19 C          64.4688   94.3316   -4.5463 C.2     1  UNL1       -0.0071
     20 C          57.3049   92.7321   -2.4540 C.3     1  UNL1        0.0556
     21 C          56.1978   93.6872   -2.7886 C.ar    1  UNL1       -0.0198
     22 C          55.2112   94.0911   -1.7335 C.ar    1  UNL1       -0.0011
     23 C          54.1041   95.0462   -2.0681 C.ar    1  UNL1        0.0363
     24 C          53.9836   95.5975   -3.4579 C.ar    1  UNL1        0.1337
     25 O          52.8765   96.5527   -3.7925 O.3     1  UNL1       -0.5055
     26 C          54.9702   95.1937   -4.5131 C.ar    1  UNL1        0.0363
     27 C          56.0774   94.2385   -4.1785 C.ar    1  UNL1       -0.0011
     28 H          52.2601   96.8050   -3.1333 H       1  UNL1        0.2922
     29 C          59.1286   93.3823    2.3679 C.3     1  UNL1        0.1217
     30 C          59.9571   92.4211    3.1679 C.ar    1  UNL1        0.0135
     31 C          61.4201   92.2676    2.8746 C.ar    1  UNL1       -0.0012
     32 C          62.2486   91.3066    3.6745 C.ar    1  UNL1       -0.0002
     33 C          61.6140   90.4990    4.7677 C.ar    1  UNL1        0.0016
     34 C          60.1510   90.6525    5.0610 C.ar    1  UNL1        0.0214
     35 C          59.2553   89.9963    6.0695 C.ar    1  UNL1        0.0721
     36 C          57.8732   90.5519    5.8929 C.ar    1  UNL1        0.0805
     37 N          57.9148   91.5514    4.7752 N.ar    1  UNL1       -0.3241
     38 C          56.7527   92.3487    4.2618 C.3     1  UNL1        0.1305
     39 C          59.3225   91.6136    4.2611 C.ar    1  UNL1        0.0577
     40 C          59.6690   88.9655    7.0777 C.2     1  UNL1        0.2506
     41 O          59.2513   87.5355    6.9030 O.2     1  UNL1       -0.2699
     42 N          60.5005   89.3648    8.2607 N.am    1  UNL1       -0.2732
     43 C          61.0867   88.6426    9.4373 C.3     1  UNL1        0.1114
     44 C          61.6763   89.9296    9.9335 C.3     1  UNL1        0.0975
     45 C          61.0900   90.6518    8.7569 C.3     1  UNL1        0.1114
     46 N          62.5077   90.3288   11.1164 N.3     1  UNL1       -0.2708
     47 C          63.6804   91.2461   10.9336 C.3     1  UNL1        0.0747
     48 C          64.5118   91.6454   12.1166 C.3     1  UNL1        0.0469
     49 C          64.1706   91.1274   13.4823 C.3     1  UNL1        0.1181
     50 C          62.9979   90.2101   13.6651 C.3     1  UNL1        0.0469
     51 C          62.1665   89.8108   12.4822 C.3     1  UNL1        0.0747
     52 O          65.0020   91.5267   14.6653 O.3     1  UNL1       -0.3535
     53 C          66.4864   91.6855   14.5193 C.3     1  UNL1        0.1740
     54 C          65.5829   95.9888   -0.4246 C.3     1  UNL1        0.1177
     55 C          65.4721   95.7163    1.0463 C.ar    1  UNL1       -0.0025
     56 C          65.8208   96.7882    2.0359 C.ar    1  UNL1       -0.0026
     57 C          65.7100   96.5157    3.5068 C.ar    1  UNL1       -0.0003
     58 C          65.2505   95.1714    3.9880 C.ar    1  UNL1       -0.0000
     59 C          64.9017   94.0995    2.9983 C.ar    1  UNL1       -0.0003
     60 C          65.0125   94.3719    1.5275 C.ar    1  UNL1       -0.0026
@<TRIPOS>BOND
     1    18    19    2
     2    19    17    1
     3    17     1    1
     4     1     2    1
     5     2     3    1
     6     3     4    2
     7     3     5   am
     8     5     6    1
     9     6    20    1
    10    20    21    1
    11    21    22   ar
    12    22    23   ar
    13    23    24   ar
    14    24    25    1
    15    24    26   ar
    16    26    27   ar
    17     6     7    1
    18     7     8    2
    19     7     9   am
    20     9    29    1
    21    29    30    1
    22    30    31   ar
    23    31    32   ar
    24    32    33   ar
    25    33    34   ar
    26    34    35   ar
    27    35    40    1
    28    40    41    2
    29    40    42   am
    30    42    43    1
    31    43    44    1
    32    44    46    1
    33    46    47    1
    34    47    48    1
    35    48    49    1
    36    49    52    1
    37    52    53    1
    38    49    50    1
    39    50    51    1
    40    44    45    1
    41    35    36   ar
    42    36    37   ar
    43    37    38    1
    44    37    39   ar
    45     9    10    1
    46    11    10    1
    47    11    12    1
    48    12    13   am
    49    13    14    2
    50    13    15   am
    51    15    54    1
    52    54    55    1
    53    55    56   ar
    54    56    57   ar
    55    57    58   ar
    56    58    59   ar
    57    59    60   ar
    58    12     1    1
    59    60    55   ar
    60    11     5    1
    61    27    21   ar
    62    39    30   ar
    63    39    34   ar
    64    45    42    1
    65    51    46    1
    66    25    28    1
    67    15    16    1
