@<TRIPOS>MOLECULE
*****
 27 30 0 0 0
SMALL
GASTEIGER

@<TRIPOS>ATOM
      1 C          64.3706   89.9767   14.7631 C.2     1  UNL1        0.1059
      2 C          63.6706   90.1330   16.0806 C.2     1  UNL1        0.0175
      3 C          63.1375   88.9263   16.7943 C.2     1  UNL1        0.0214
      4 C          63.3044   87.5633   16.1907 C.2     1  UNL1        0.0974
      5 N          62.8869   86.2005   16.6584 N.2     1  UNL1       -0.2200
      6 C          63.3289   85.2020   15.6299 C.2     1  UNL1        0.1901
      7 N          64.0195   85.9477   14.5267 N.2     1  UNL1       -0.2237
      8 C          64.0043   87.4070   14.8733 C.2     1  UNL1        0.0845
      9 C          64.5374   88.6137   14.1595 C.3     1  UNL1        0.0939
     10 O          66.2734   90.8985   14.5903 O.2     1  UNL1       -0.1531
     11 S          64.9037   91.1835   14.0493 S.O2    1  UNL1        0.0600
     12 O          63.5340   91.4686   13.5083 O.2     1  UNL1       -0.1531
     13 N          65.4368   92.3903   13.3355 N.3     1  UNL1       -0.1507
     14 C          66.1960   93.4370   14.0958 C.3     1  UNL1        0.1279
     15 C          66.7290   94.6437   13.3820 C.3     1  UNL1        0.1613
     16 O          66.5029   94.8038   11.9078 O.3     1  UNL1       -0.3507
     17 C          65.7438   93.7572   11.1474 C.3     1  UNL1        0.1613
     18 C          65.2106   92.5504   11.8613 C.3     1  UNL1        0.1279
     19 S          63.1175   83.7183   15.6935 S.3     1  UNL1       -0.0709
     20 C          62.0809   83.0705   14.8241 C.3     1  UNL1        0.0914
     21 C          62.4830   82.4265   13.5305 C.ar    1  UNL1       -0.0101
     22 C          62.3487   80.9425   13.3580 C.ar    1  UNL1       -0.0033
     23 C          62.7509   80.2984   12.0644 C.ar    1  UNL1        0.0006
     24 C          63.2873   81.1383   10.9433 C.ar    1  UNL1        0.0114
     25 C          63.4216   82.6223   11.1158 C.ar    1  UNL1        0.0574
     26 CL         63.9580   83.4622    9.9948 Cl      1  UNL1       -0.0823
     27 C          63.0194   83.2664   12.4095 C.ar    1  UNL1        0.0080
@<TRIPOS>BOND
     1    10    11    2
     2    11    12    2
     3    11     1    1
     4     1     2    2
     5     2     3    1
     6     3     4    2
     7     4     5    1
     8     5     6    2
     9     6    19    1
    10    19    20    1
    11    20    21    1
    12    21    22   ar
    13    22    23   ar
    14    23    24   ar
    15    24    25   ar
    16    25    26    1
    17    25    27   ar
    18     6     7    1
    19     7     8    2
    20     8     9    1
    21    11    13    1
    22    13    14    1
    23    14    15    1
    24    15    16    1
    25    16    17    1
    26    17    18    1
    27     9     1    1
    28    18    13    1
    29     8     4    1
    30    27    21   ar
@<TRIPOS>MOLECULE
*****
 27 30 0 0 0
SMALL
GASTEIGER

@<TRIPOS>ATOM
      1 C          64.8066   91.0099   14.0709 C.2     1  UNL1        0.1059
      2 C          64.1663   91.5028   15.3346 C.2     1  UNL1        0.0175
      3 C          63.5708   90.5255   16.3043 C.2     1  UNL1        0.0214
      4 C          63.6157   89.0553   16.0102 C.2     1  UNL1        0.0974
      5 N          63.1154   87.8637   16.7718 N.2     1  UNL1       -0.2200
      6 C          63.4465   86.6343   15.9787 C.2     1  UNL1        0.1901
      7 N          64.1514   87.0662   14.7270 N.2     1  UNL1       -0.2237
      8 C          64.2559   88.5624   14.7465 C.2     1  UNL1        0.0845
      9 C          64.8514   89.5397   13.7769 C.3     1  UNL1        0.0939
     10 O          64.3722   91.6023   12.0808 O.2     1  UNL1       -0.1531
     11 S          65.4021   91.9872   13.1012 S.O2    1  UNL1        0.0600
     12 O          66.4319   92.3721   14.1216 O.2     1  UNL1       -0.1531
     13 N          65.9976   92.9645   12.1316 N.3     1  UNL1       -0.1507
     14 C          66.5731   92.4781   10.8345 C.3     1  UNL1        0.1279
     15 C          67.1687   93.4553    9.8649 C.3     1  UNL1        0.1613
     16 O          67.1886   94.9191   10.1922 O.3     1  UNL1       -0.3507
     17 C          66.6131   95.4055   11.4891 C.3     1  UNL1        0.1613
     18 C          66.0176   94.4282   12.4588 C.3     1  UNL1        0.1279
     19 S          63.1286   85.2212   16.3687 S.3     1  UNL1       -0.0709
     20 C          62.0147   84.4866   15.6835 C.3     1  UNL1        0.0914
     21 C          62.2897   83.7033   14.4342 C.ar    1  UNL1       -0.0101
     22 C          62.7024   84.4137   13.1792 C.ar    1  UNL1       -0.0033
     23 C          62.9775   83.6305   11.9299 C.ar    1  UNL1        0.0006
     24 C          62.8398   82.1368   11.9355 C.ar    1  UNL1        0.0114
     25 C          62.4272   81.4264   13.1906 C.ar    1  UNL1        0.0574
     26 CL         62.2895   79.9327   13.1963 Cl      1  UNL1       -0.0823
     27 C          62.1521   82.2097   14.4399 C.ar    1  UNL1        0.0080
@<TRIPOS>BOND
     1    10    11    2
     2    11    12    2
     3    11     1    1
     4     1     2    2
     5     2     3    1
     6     3     4    2
     7     4     5    1
     8     5     6    2
     9     6    19    1
    10    19    20    1
    11    20    21    1
    12    21    22   ar
    13    22    23   ar
    14    23    24   ar
    15    24    25   ar
    16    25    26    1
    17    25    27   ar
    18     6     7    1
    19     7     8    2
    20     8     9    1
    21    11    13    1
    22    13    14    1
    23    14    15    1
    24    15    16    1
    25    16    17    1
    26    17    18    1
    27     9     1    1
    28    18    13    1
    29     8     4    1
    30    27    21   ar
@<TRIPOS>MOLECULE
*****
 27 30 0 0 0
SMALL
GASTEIGER

@<TRIPOS>ATOM
      1 C          62.9060   86.0227   12.5176 C.2     1  UNL1        0.1059
      2 C          62.2633   86.7257   11.3589 C.2     1  UNL1        0.0175
      3 C          62.4267   88.2079   11.1968 C.2     1  UNL1        0.0214
      4 C          63.2328   88.9871   12.1935 C.2     1  UNL1        0.0974
      5 N          63.5664   90.4461   12.2936 N.2     1  UNL1       -0.2200
      6 C          64.4153   90.6447   13.5142 C.2     1  UNL1        0.1901
      7 N          64.6063   89.3085   14.1684 N.2     1  UNL1       -0.2237
      8 C          63.8754   88.2840   13.3522 C.2     1  UNL1        0.0845
      9 C          63.7120   86.8018   13.5142 C.3     1  UNL1        0.0939
     10 O          62.9885   84.3527   11.2120 O.2     1  UNL1       -0.1531
     11 S          62.7427   84.5404   12.6798 S.O2    1  UNL1        0.0600
     12 O          62.4969   84.7280   14.1475 O.2     1  UNL1       -0.1531
     13 N          62.5793   83.0582   12.8419 N.3     1  UNL1       -0.1507
     14 C          63.0051   82.1318   11.7416 C.3     1  UNL1        0.1279
     15 C          62.8418   80.6496   11.9038 C.3     1  UNL1        0.1613
     16 O          62.2526   80.0937   13.1662 O.3     1  UNL1       -0.3507
     17 C          61.8268   81.0199   14.2665 C.3     1  UNL1        0.1613
     18 C          61.9901   82.5022   14.1044 C.3     1  UNL1        0.1279
     19 S          64.9751   91.9504   13.9960 S.3     1  UNL1       -0.0709
     20 C          66.3750   92.3466   13.6310 C.3     1  UNL1        0.0914
     21 C          66.6516   92.9838   12.3016 C.ar    1  UNL1       -0.0101
     22 C          66.1556   94.3705   12.0169 C.ar    1  UNL1       -0.0033
     23 C          66.4322   95.0077   10.6875 C.ar    1  UNL1        0.0006
     24 C          67.2049   94.2583    9.6428 C.ar    1  UNL1        0.0114
     25 C          67.7010   92.8716    9.9275 C.ar    1  UNL1        0.0574
     26 CL         68.4736   92.1222    8.8829 Cl      1  UNL1       -0.0823
     27 C          67.4243   92.2344   11.2570 C.ar    1  UNL1        0.0080
@<TRIPOS>BOND
     1    10    11    2
     2    11    12    2
     3    11     1    1
     4     1     2    2
     5     2     3    1
     6     3     4    2
     7     4     5    1
     8     5     6    2
     9     6    19    1
    10    19    20    1
    11    20    21    1
    12    21    22   ar
    13    22    23   ar
    14    23    24   ar
    15    24    25   ar
    16    25    26    1
    17    25    27   ar
    18     6     7    1
    19     7     8    2
    20     8     9    1
    21    11    13    1
    22    13    14    1
    23    14    15    1
    24    15    16    1
    25    16    17    1
    26    17    18    1
    27     9     1    1
    28    18    13    1
    29     8     4    1
    30    27    21   ar
@<TRIPOS>MOLECULE
*****
 27 30 0 0 0
SMALL
GASTEIGER

@<TRIPOS>ATOM
      1 C          64.9697   91.6605   12.5814 C.2     1  UNL1        0.1059
      2 C          64.9112   92.2425   11.2001 C.2     1  UNL1        0.0175
      3 C          63.8513   91.7901   10.2400 C.2     1  UNL1        0.0214
      4 C          62.8499   90.7557   10.6612 C.2     1  UNL1        0.0974
      5 N          61.6999   90.1192    9.9383 N.2     1  UNL1       -0.2200
      6 C          61.0478   89.1438   10.8728 C.2     1  UNL1        0.1901
      7 N          61.7947   89.1776   12.1732 N.2     1  UNL1       -0.2237
      8 C          62.9084   90.1738   12.0424 C.2     1  UNL1        0.0845
      9 C          63.9684   90.6262   13.0025 C.3     1  UNL1        0.0939
     10 O          66.9879   92.2888   12.4010 O.2     1  UNL1       -0.1531
     11 S          66.0297   92.1129   13.5416 S.O2    1  UNL1        0.0600
     12 O          65.0715   91.9370   14.6821 O.2     1  UNL1       -0.1531
     13 N          67.0896   92.5653   14.5017 N.3     1  UNL1       -0.1507
     14 C          67.3844   94.0276   14.6591 C.3     1  UNL1        0.1279
     15 C          68.4442   94.4800   15.6193 C.3     1  UNL1        0.1613
     16 O          69.2094   93.4701   16.4221 O.3     1  UNL1       -0.3507
     17 C          68.9146   92.0078   16.2649 C.3     1  UNL1        0.1613
     18 C          67.8547   91.5554   15.3046 C.3     1  UNL1        0.1279
     19 S          59.8576   88.2854   10.5616 S.3     1  UNL1       -0.0709
     20 C          59.9580   87.2149    9.5158 C.3     1  UNL1        0.0914
     21 C          61.1227   86.2697    9.5194 C.ar    1  UNL1       -0.0101
     22 C          61.8239   85.9387    8.2353 C.ar    1  UNL1       -0.0033
     23 C          62.9886   84.9935    8.2389 C.ar    1  UNL1        0.0006
     24 C          63.4522   84.3793    9.5266 C.ar    1  UNL1        0.0114
     25 C          62.7510   84.7103   10.8106 C.ar    1  UNL1        0.0574
     26 CL         63.2145   84.0962   12.0982 Cl      1  UNL1       -0.0823
     27 C          61.5862   85.6556   10.8070 C.ar    1  UNL1        0.0080
@<TRIPOS>BOND
     1    10    11    2
     2    11    12    2
     3    11     1    1
     4     1     2    2
     5     2     3    1
     6     3     4    2
     7     4     5    1
     8     5     6    2
     9     6    19    1
    10    19    20    1
    11    20    21    1
    12    21    22   ar
    13    22    23   ar
    14    23    24   ar
    15    24    25   ar
    16    25    26    1
    17    25    27   ar
    18     6     7    1
    19     7     8    2
    20     8     9    1
    21    11    13    1
    22    13    14    1
    23    14    15    1
    24    15    16    1
    25    16    17    1
    26    17    18    1
    27     9     1    1
    28    18    13    1
    29     8     4    1
    30    27    21   ar
@<TRIPOS>MOLECULE
*****
 27 30 0 0 0
SMALL
GASTEIGER

@<TRIPOS>ATOM
      1 C          63.4930   85.6334   13.7790 C.2     1  UNL1        0.1059
      2 C          64.1553   86.0760   15.0500 C.2     1  UNL1        0.0175
      3 C          64.5429   87.5134   15.2325 C.2     1  UNL1        0.0214
      4 C          64.2681   88.5083   14.1440 C.2     1  UNL1        0.0974
      5 N          64.5348   89.9808   14.0394 N.2     1  UNL1       -0.2200
      6 C          64.0373   90.4481   12.7037 C.2     1  UNL1        0.1901
      7 N          63.4632   89.2645   11.9829 N.2     1  UNL1       -0.2237
      8 C          63.6058   88.0657   12.8731 C.2     1  UNL1        0.0845
      9 C          63.2182   86.6282   12.6906 C.3     1  UNL1        0.0939
     10 O          62.0148   84.3607   14.6131 O.2     1  UNL1       -0.1531
     11 S          63.1053   84.1958   13.5965 S.O2    1  UNL1        0.0600
     12 O          64.1958   84.0309   12.5799 O.2     1  UNL1       -0.1531
     13 N          62.7178   82.7583   13.4139 N.3     1  UNL1       -0.1507
     14 C          61.7700   82.1087   14.3782 C.3     1  UNL1        0.1279
     15 C          61.3824   80.6712   14.1956 C.3     1  UNL1        0.1613
     16 O          61.9426   79.8833   13.0488 O.3     1  UNL1       -0.3507
     17 C          62.8903   80.5328   12.0845 C.3     1  UNL1        0.1613
     18 C          63.2779   81.9703   12.2670 C.3     1  UNL1        0.1279
     19 S          64.1025   91.8525   12.1806 S.3     1  UNL1       -0.0709
     20 C          65.2910   92.7137   12.4901 C.3     1  UNL1        0.0914
     21 C          66.0912   93.3169   11.3740 C.ar    1  UNL1       -0.0101
     22 C          65.9335   94.7704   11.0385 C.ar    1  UNL1       -0.0033
     23 C          66.7337   95.3735    9.9224 C.ar    1  UNL1        0.0006
     24 C          67.6916   94.5232    9.1416 C.ar    1  UNL1        0.0114
     25 C          67.8493   93.0697    9.4771 C.ar    1  UNL1        0.0574
     26 CL         68.8071   92.2194    8.6965 Cl      1  UNL1       -0.0823
     27 C          67.0490   92.4666   10.5933 C.ar    1  UNL1        0.0080
@<TRIPOS>BOND
     1    10    11    2
     2    11    12    2
     3    11     1    1
     4     1     2    2
     5     2     3    1
     6     3     4    2
     7     4     5    1
     8     5     6    2
     9     6    19    1
    10    19    20    1
    11    20    21    1
    12    21    22   ar
    13    22    23   ar
    14    23    24   ar
    15    24    25   ar
    16    25    26    1
    17    25    27   ar
    18     6     7    1
    19     7     8    2
    20     8     9    1
    21    11    13    1
    22    13    14    1
    23    14    15    1
    24    15    16    1
    25    16    17    1
    26    17    18    1
    27     9     1    1
    28    18    13    1
    29     8     4    1
    30    27    21   ar
@<TRIPOS>MOLECULE
*****
 27 30 0 0 0
SMALL
GASTEIGER

@<TRIPOS>ATOM
      1 C          64.5578   91.3137   12.2837 C.2     1  UNL1        0.1059
      2 C          64.4028   92.0138   10.9662 C.2     1  UNL1        0.0175
      3 C          63.3245   91.5896   10.0137 C.2     1  UNL1        0.0214
      4 C          62.4012   90.4652   10.3788 C.2     1  UNL1        0.0974
      5 N          61.2541   89.8312    9.6490 N.2     1  UNL1       -0.2200
      6 C          60.7002   88.7393   10.5155 C.2     1  UNL1        0.1901
      7 N          61.5049   88.6985   11.7808 N.2     1  UNL1       -0.2237
      8 C          62.5561   89.7651   11.6963 C.2     1  UNL1        0.0845
      9 C          63.6344   90.1894   12.6487 C.3     1  UNL1        0.0939
     10 O          65.3090   90.5746   14.1248 O.2     1  UNL1       -0.1531
     11 S          65.6361   91.7380   13.2362 S.O2    1  UNL1        0.0600
     12 O          65.9632   92.9013   12.3477 O.2     1  UNL1       -0.1531
     13 N          66.7144   92.1623   14.1887 N.3     1  UNL1       -0.1507
     14 C          66.3550   92.6348   15.5662 C.3     1  UNL1        0.1279
     15 C          67.4333   93.0591   16.5187 C.3     1  UNL1        0.1613
     16 O          68.8710   93.0108   16.0937 O.3     1  UNL1       -0.3507
     17 C          69.2304   92.5383   14.7162 C.3     1  UNL1        0.1613
     18 C          68.1521   92.1140   13.7637 C.3     1  UNL1        0.1279
     19 S          59.5445   87.8452   10.1764 S.3     1  UNL1       -0.0709
     20 C          59.4921   87.1607    8.8427 C.3     1  UNL1        0.0914
     21 C          60.6449   86.3160    8.3873 C.ar    1  UNL1       -0.0101
     22 C          61.8512   86.1576    9.2646 C.ar    1  UNL1       -0.0033
     23 C          63.0041   85.3129    8.8092 C.ar    1  UNL1        0.0006
     24 C          62.9506   84.6266    7.4765 C.ar    1  UNL1        0.0114
     25 C          61.7443   84.7850    6.5992 C.ar    1  UNL1        0.0574
     26 CL         61.6908   84.0987    5.2665 Cl      1  UNL1       -0.0823
     27 C          60.5914   85.6297    7.0546 C.ar    1  UNL1        0.0080
@<TRIPOS>BOND
     1    10    11    2
     2    11    12    2
     3    11     1    1
     4     1     2    2
     5     2     3    1
     6     3     4    2
     7     4     5    1
     8     5     6    2
     9     6    19    1
    10    19    20    1
    11    20    21    1
    12    21    22   ar
    13    22    23   ar
    14    23    24   ar
    15    24    25   ar
    16    25    26    1
    17    25    27   ar
    18     6     7    1
    19     7     8    2
    20     8     9    1
    21    11    13    1
    22    13    14    1
    23    14    15    1
    24    15    16    1
    25    16    17    1
    26    17    18    1
    27     9     1    1
    28    18    13    1
    29     8     4    1
    30    27    21   ar
@<TRIPOS>MOLECULE
*****
 27 30 0 0 0
SMALL
GASTEIGER

@<TRIPOS>ATOM
      1 C          63.5025   85.6583   13.7691 C.2     1  UNL1        0.1059
      2 C          64.1558   86.0988   15.0454 C.2     1  UNL1        0.0175
      3 C          64.5381   87.5369   15.2347 C.2     1  UNL1        0.0214
      4 C          64.2670   88.5343   14.1477 C.2     1  UNL1        0.0974
      5 N          64.5300   90.0079   14.0493 N.2     1  UNL1       -0.2200
      6 C          64.0392   90.4780   12.7121 C.2     1  UNL1        0.1901
      7 N          63.4729   89.2950   11.9841 N.2     1  UNL1       -0.2237
      8 C          63.6137   88.0938   12.8714 C.2     1  UNL1        0.0845
      9 C          63.2314   86.6558   12.6821 C.3     1  UNL1        0.0939
     10 O          64.1632   84.0837   12.5104 O.2     1  UNL1       -0.1531
     11 S          63.1202   84.2202   13.5797 S.O2    1  UNL1        0.0600
     12 O          62.0772   84.3567   14.6490 O.2     1  UNL1       -0.1531
     13 N          62.7378   82.7822   13.3904 N.3     1  UNL1       -0.1507
     14 C          63.2971   82.0030   12.2370 C.3     1  UNL1        0.1279
     15 C          62.9147   80.5650   12.0476 C.3     1  UNL1        0.1613
     16 O          61.9732   79.9061   13.0116 O.3     1  UNL1       -0.3507
     17 C          61.4140   80.6851   14.1650 C.3     1  UNL1        0.1613
     18 C          61.7963   82.1232   14.3544 C.3     1  UNL1        0.1279
     19 S          64.1035   91.8842   12.1938 S.3     1  UNL1       -0.0709
     20 C          65.3291   92.7157   12.4310 C.3     1  UNL1        0.0914
     21 C          66.1342   93.2138   11.2676 C.ar    1  UNL1       -0.0101
     22 C          67.1820   92.3360   10.6498 C.ar    1  UNL1       -0.0033
     23 C          67.9871   92.8342    9.4864 C.ar    1  UNL1        0.0006
     24 C          67.7444   94.2102    8.9407 C.ar    1  UNL1        0.0114
     25 C          66.6966   95.0880    9.5584 C.ar    1  UNL1        0.0574
     26 CL         66.4540   96.4640    9.0128 Cl      1  UNL1       -0.0823
     27 C          65.8915   94.5898   10.7220 C.ar    1  UNL1        0.0080
@<TRIPOS>BOND
     1    10    11    2
     2    11    12    2
     3    11     1    1
     4     1     2    2
     5     2     3    1
     6     3     4    2
     7     4     5    1
     8     5     6    2
     9     6    19    1
    10    19    20    1
    11    20    21    1
    12    21    22   ar
    13    22    23   ar
    14    23    24   ar
    15    24    25   ar
    16    25    26    1
    17    25    27   ar
    18     6     7    1
    19     7     8    2
    20     8     9    1
    21    11    13    1
    22    13    14    1
    23    14    15    1
    24    15    16    1
    25    16    17    1
    26    17    18    1
    27     9     1    1
    28    18    13    1
    29     8     4    1
    30    27    21   ar
@<TRIPOS>MOLECULE
*****
 27 30 0 0 0
SMALL
GASTEIGER

@<TRIPOS>ATOM
      1 C          63.6913   84.8262   13.5359 C.2     1  UNL1        0.1059
      2 C          64.3768   85.0658   14.8484 C.2     1  UNL1        0.0175
      3 C          64.6645   86.4671   15.2993 C.2     1  UNL1        0.0214
      4 C          64.2668   87.6288   14.4378 C.2     1  UNL1        0.0974
      5 N          64.4183   89.1103   14.6180 N.2     1  UNL1       -0.2200
      6 C          63.8265   89.7862   13.4168 C.2     1  UNL1        0.1901
      7 N          63.3092   88.7225   12.4943 N.2     1  UNL1       -0.2237
      8 C          63.5814   87.3892   13.1253 C.2     1  UNL1        0.0845
      9 C          63.2936   85.9879   12.6744 C.3     1  UNL1        0.0939
     10 O          63.6906   82.9206   14.4682 O.2     1  UNL1       -0.1531
     11 S          63.4035   83.4247   13.0849 S.O2    1  UNL1        0.0600
     12 O          63.1164   83.9289   11.7017 O.2     1  UNL1       -0.1531
     13 N          63.1157   82.0234   12.6339 N.3     1  UNL1       -0.1507
     14 C          63.2517   81.6589   11.1852 C.3     1  UNL1        0.1279
     15 C          62.9639   80.2576   10.7342 C.3     1  UNL1        0.1613
     16 O          62.5401   79.2208   11.7318 O.3     1  UNL1       -0.3507
     17 C          62.4042   79.5852   13.1805 C.3     1  UNL1        0.1613
     18 C          62.6920   80.9866   13.6316 C.3     1  UNL1        0.1279
     19 S          63.7630   91.2660   13.1797 S.3     1  UNL1       -0.0709
     20 C          65.0082   92.0225   12.8229 C.3     1  UNL1        0.0914
     21 C          66.0923   92.2063   13.8432 C.ar    1  UNL1       -0.0101
     22 C          65.7366   92.4783   15.2748 C.ar    1  UNL1       -0.0033
     23 C          66.8207   92.6621   16.2950 C.ar    1  UNL1        0.0006
     24 C          68.2606   92.5740   15.8836 C.ar    1  UNL1        0.0114
     25 C          68.6162   92.3020   14.4520 C.ar    1  UNL1        0.0574
     26 CL         70.0560   92.2138   14.0406 Cl      1  UNL1       -0.0823
     27 C          67.5320   92.1182   13.4318 C.ar    1  UNL1        0.0080
@<TRIPOS>BOND
     1    10    11    2
     2    11    12    2
     3    11     1    1
     4     1     2    2
     5     2     3    1
     6     3     4    2
     7     4     5    1
     8     5     6    2
     9     6    19    1
    10    19    20    1
    11    20    21    1
    12    21    22   ar
    13    22    23   ar
    14    23    24   ar
    15    24    25   ar
    16    25    26    1
    17    25    27   ar
    18     6     7    1
    19     7     8    2
    20     8     9    1
    21    11    13    1
    22    13    14    1
    23    14    15    1
    24    15    16    1
    25    16    17    1
    26    17    18    1
    27     9     1    1
    28    18    13    1
    29     8     4    1
    30    27    21   ar
@<TRIPOS>MOLECULE
*****
 27 30 0 0 0
SMALL
GASTEIGER

@<TRIPOS>ATOM
      1 C          62.6973   89.1402   11.0848 C.2     1  UNL1        0.1059
      2 C          62.9328   88.6331   12.4767 C.2     1  UNL1        0.0175
      3 C          63.7596   89.4354   13.4373 C.2     1  UNL1        0.0214
      4 C          64.3509   90.7447   13.0060 C.2     1  UNL1        0.0974
      5 N          65.2024   91.7474   13.7268 N.2     1  UNL1       -0.2200
      6 C          65.4932   92.8742   12.7803 C.2     1  UNL1        0.1901
      7 N          64.8214   92.5678   11.4746 N.2     1  UNL1       -0.2237
      8 C          64.1155   91.2517   11.6141 C.2     1  UNL1        0.0845
      9 C          63.2887   90.4495   10.6535 C.3     1  UNL1        0.0939
     10 O          62.3690   87.0708   10.7532 O.2     1  UNL1       -0.1531
     11 S          61.8705   88.3379   10.1241 S.O2    1  UNL1        0.0600
     12 O          61.3720   89.6051    9.4951 O.2     1  UNL1       -0.1531
     13 N          61.0437   87.5358    9.1635 N.3     1  UNL1       -0.1507
     14 C          59.6663   87.9989    8.7911 C.3     1  UNL1        0.1279
     15 C          58.8395   87.1967    7.8305 C.3     1  UNL1        0.1613
     16 O          59.3900   85.9314    7.2422 O.3     1  UNL1       -0.3507
     17 C          60.7672   85.4683    7.6145 C.3     1  UNL1        0.1613
     18 C          61.5941   86.2705    8.5752 C.3     1  UNL1        0.1279
     19 S          66.3120   94.0933   13.0859 S.3     1  UNL1       -0.0709
     20 C          66.3273   95.2463   12.1265 C.3     1  UNL1        0.0914
     21 C          66.7648   95.0354   10.7074 C.ar    1  UNL1       -0.0101
     22 C          66.4259   96.0532    9.6589 C.ar    1  UNL1       -0.0033
     23 C          66.8633   95.8423    8.2398 C.ar    1  UNL1        0.0006
     24 C          67.6397   94.6135    7.8690 C.ar    1  UNL1        0.0114
     25 C          67.9786   93.5957    8.9174 C.ar    1  UNL1        0.0574
     26 CL         68.7550   92.3670    8.5467 Cl      1  UNL1       -0.0823
     27 C          67.5411   93.8067   10.3367 C.ar    1  UNL1        0.0080
@<TRIPOS>BOND
     1    10    11    2
     2    11    12    2
     3    11     1    1
     4     1     2    2
     5     2     3    1
     6     3     4    2
     7     4     5    1
     8     5     6    2
     9     6    19    1
    10    19    20    1
    11    20    21    1
    12    21    22   ar
    13    22    23   ar
    14    23    24   ar
    15    24    25   ar
    16    25    26    1
    17    25    27   ar
    18     6     7    1
    19     7     8    2
    20     8     9    1
    21    11    13    1
    22    13    14    1
    23    14    15    1
    24    15    16    1
    25    16    17    1
    26    17    18    1
    27     9     1    1
    28    18    13    1
    29     8     4    1
    30    27    21   ar
