@<TRIPOS>MOLECULE
*****
 26 29 0 0 0
SMALL
GASTEIGER

@<TRIPOS>ATOM
      1 C          62.9100   87.8290   12.4100 C.ar    1  UNL1        0.0456
      2 C          63.6821   87.8436   13.6960 C.ar    1  UNL1        0.1327
      3 N          64.1501   86.5549   14.3044 N.ar    1  UNL1       -0.2307
      4 C          63.8460   85.2516   13.6268 C.ar    1  UNL1        0.0827
      5 C          64.3140   83.9629   14.2352 C.ar    1  UNL1        0.0200
      6 C          64.0098   82.6597   13.5577 C.ar    1  UNL1        0.0129
      7 C          63.2377   82.6451   12.2718 C.ar    1  UNL1        0.0578
      8 CL         62.9335   81.3418   11.5943 Cl      1  UNL1       -0.0822
      9 C          62.7697   83.9338   11.6634 C.ar    1  UNL1        0.0129
     10 C          63.0738   85.2370   12.3409 C.ar    1  UNL1        0.0187
     11 C          62.6058   86.5258   11.7325 C.ar    1  UNL1        0.0053
     12 N          63.9862   89.1469   14.3735 N.pl3   1  UNL1       -0.2932
     13 C          63.3621   89.4664   15.6994 C.3     1  UNL1        0.0922
     14 C          63.6662   90.7697   16.3769 C.3     1  UNL1        0.0215
     15 C          64.5945   91.7534   15.7284 C.3     1  UNL1        0.0035
     16 C          65.2187   91.4338   14.4024 C.3     1  UNL1        0.0215
     17 C          64.9146   90.1306   13.7250 C.3     1  UNL1        0.0922
     18 C          61.8337   86.5113   10.4466 C.ar    1  UNL1        0.0002
     19 C          62.4426   85.9137    9.2128 C.ar    1  UNL1        0.0000
     20 C          61.6704   85.8992    7.9269 C.ar    1  UNL1        0.0000
     21 C          60.2894   86.4823    7.8748 C.ar    1  UNL1        0.0000
     22 C          59.6805   87.0799    9.1085 C.ar    1  UNL1        0.0000
     23 C          60.4526   87.0944   10.3944 C.ar    1  UNL1        0.0000
     24 O          63.1577   89.6901   10.6141 O.co2   1  UNL1       -0.5445
     25 C          62.4419   89.1178   11.8017 C.2     1  UNL1        0.0756
     26 O          61.2582   89.8343   12.3808 O.co2   1  UNL1       -0.5445
@<TRIPOS>UNITY_ATOM_ATTR
24 1
charge -1
@<TRIPOS>BOND
     1    24    25   ar
     2    25    26   ar
     3    25     1    1
     4     1     2   ar
     5     2    12    1
     6    12    13    1
     7    13    14    1
     8    14    15    1
     9    15    16    1
    10    16    17    1
    11     2     3   ar
    12     3     4   ar
    13     4     5   ar
    14     5     6   ar
    15     6     7   ar
    16     7     8    1
    17     7     9   ar
    18     9    10   ar
    19    10    11   ar
    20    11    18    1
    21    18    19   ar
    22    19    20   ar
    23    20    21   ar
    24    21    22   ar
    25    22    23   ar
    26    11     1   ar
    27    23    18   ar
    28    17    12    1
    29    10     4   ar
@<TRIPOS>MOLECULE
*****
 26 29 0 0 0
SMALL
GASTEIGER

@<TRIPOS>ATOM
      1 C          63.6389   87.4090   13.6280 C.ar    1  UNL1        0.0456
      2 C          63.5322   88.8745   13.3262 C.ar    1  UNL1        0.1327
      3 N          62.8860   89.3328   12.0525 N.ar    1  UNL1       -0.2307
      4 C          62.3464   88.3256   11.0805 C.ar    1  UNL1        0.0827
      5 C          61.7002   88.7839    9.8068 C.ar    1  UNL1        0.0200
      6 C          61.1607   87.7767    8.8350 C.ar    1  UNL1        0.0129
      7 C          61.2674   86.3113    9.1368 C.ar    1  UNL1        0.0578
      8 CL         60.7279   85.3041    8.1649 Cl      1  UNL1       -0.0822
      9 C          61.9136   85.8530   10.4105 C.ar    1  UNL1        0.0129
     10 C          62.4531   86.8602   11.3824 C.ar    1  UNL1        0.0187
     11 C          63.0994   86.4019   12.6561 C.ar    1  UNL1        0.0053
     12 N          64.0717   89.8816   14.2981 N.pl3   1  UNL1       -0.2932
     13 C          63.3253   90.1754   15.5656 C.3     1  UNL1        0.0922
     14 C          63.8648   91.1825   16.5374 C.3     1  UNL1        0.0215
     15 C          65.1508   91.8958   16.2418 C.3     1  UNL1        0.0035
     16 C          65.8972   91.6021   14.9744 C.3     1  UNL1        0.0215
     17 C          65.3577   90.5950   14.0025 C.3     1  UNL1        0.0922
     18 C          63.2061   84.9364   12.9580 C.ar    1  UNL1        0.0002
     19 C          62.3326   84.3221   14.0115 C.ar    1  UNL1        0.0000
     20 C          62.4393   82.8567   14.3133 C.ar    1  UNL1        0.0000
     21 C          63.4195   82.0056   13.5616 C.ar    1  UNL1        0.0000
     22 C          64.2928   82.6199   12.5082 C.ar    1  UNL1        0.0000
     23 C          64.1861   84.0853   12.2064 C.ar    1  UNL1        0.0000
     24 O          65.6766   86.3910   14.8776 O.co2   1  UNL1       -0.5445
     25 C          64.2851   86.9507   14.9018 C.2     1  UNL1        0.0756
     26 O          63.5399   87.0522   16.1996 O.co2   1  UNL1       -0.5445
@<TRIPOS>UNITY_ATOM_ATTR
24 1
charge -1
@<TRIPOS>BOND
     1    24    25   ar
     2    25    26   ar
     3    25     1    1
     4     1     2   ar
     5     2    12    1
     6    12    13    1
     7    13    14    1
     8    14    15    1
     9    15    16    1
    10    16    17    1
    11     2     3   ar
    12     3     4   ar
    13     4     5   ar
    14     5     6   ar
    15     6     7   ar
    16     7     8    1
    17     7     9   ar
    18     9    10   ar
    19    10    11   ar
    20    11    18    1
    21    18    19   ar
    22    19    20   ar
    23    20    21   ar
    24    21    22   ar
    25    22    23   ar
    26    11     1   ar
    27    23    18   ar
    28    17    12    1
    29    10     4   ar
@<TRIPOS>MOLECULE
*****
 26 29 0 0 0
SMALL
GASTEIGER

@<TRIPOS>ATOM
      1 C          64.7169   91.5634   12.1961 C.ar    1  UNL1        0.0456
      2 C          64.7090   92.2407   10.8577 C.ar    1  UNL1        0.1327
      3 N          63.6845   91.8599    9.8305 N.ar    1  UNL1       -0.2307
      4 C          62.6677   90.8019   10.1416 C.ar    1  UNL1        0.0827
      5 C          61.6431   90.4211    9.1143 C.ar    1  UNL1        0.0200
      6 C          60.6264   89.3631    9.4255 C.ar    1  UNL1        0.0129
      7 C          60.6342   88.6859   10.7639 C.ar    1  UNL1        0.0578
      8 CL         59.6174   87.6278   11.0750 Cl      1  UNL1       -0.0822
      9 C          61.6588   89.0666   11.7911 C.ar    1  UNL1        0.0129
     10 C          62.6755   90.1246   11.4800 C.ar    1  UNL1        0.0187
     11 C          63.7002   90.5054   12.5072 C.ar    1  UNL1        0.0053
     12 N          65.7258   93.2987   10.5466 N.pl3   1  UNL1       -0.2932
     13 C          65.4913   94.7152   10.9809 C.3     1  UNL1        0.0922
     14 C          66.5081   95.7731   10.6697 C.3     1  UNL1        0.0215
     15 C          67.7594   95.4147    9.9243 C.3     1  UNL1        0.0035
     16 C          67.9939   93.9982    9.4900 C.3     1  UNL1        0.0215
     17 C          66.9772   92.9403    9.8011 C.3     1  UNL1        0.0922
     18 C          63.7080   89.8282   13.8456 C.ar    1  UNL1        0.0002
     19 C          63.2120   90.5583   15.0585 C.ar    1  UNL1        0.0000
     20 C          63.2198   89.8810   16.3969 C.ar    1  UNL1        0.0000
     21 C          63.7237   88.4737   16.5224 C.ar    1  UNL1        0.0000
     22 C          64.2196   87.7437   15.3095 C.ar    1  UNL1        0.0000
     23 C          64.2118   88.4209   13.9711 C.ar    1  UNL1        0.0000
     24 O          67.1695   91.5182   13.0520 O.co2   1  UNL1       -0.5445
     25 C          65.7415   91.9442   13.2233 C.2     1  UNL1        0.0756
     26 O          65.3381   92.7510   14.4218 O.co2   1  UNL1       -0.5445
@<TRIPOS>UNITY_ATOM_ATTR
24 1
charge -1
@<TRIPOS>BOND
     1    24    25   ar
     2    25    26   ar
     3    25     1    1
     4     1     2   ar
     5     2    12    1
     6    12    13    1
     7    13    14    1
     8    14    15    1
     9    15    16    1
    10    16    17    1
    11     2     3   ar
    12     3     4   ar
    13     4     5   ar
    14     5     6   ar
    15     6     7   ar
    16     7     8    1
    17     7     9   ar
    18     9    10   ar
    19    10    11   ar
    20    11    18    1
    21    18    19   ar
    22    19    20   ar
    23    20    21   ar
    24    21    22   ar
    25    22    23   ar
    26    11     1   ar
    27    23    18   ar
    28    17    12    1
    29    10     4   ar
@<TRIPOS>MOLECULE
*****
 26 29 0 0 0
SMALL
GASTEIGER

@<TRIPOS>ATOM
      1 C          62.2850   88.9774   11.5595 C.ar    1  UNL1        0.0456
      2 C          62.1523   89.5316   10.1719 C.ar    1  UNL1        0.1327
      3 N          62.9398   90.7433    9.7698 N.ar    1  UNL1       -0.2307
      4 C          63.8599   91.4008   10.7553 C.ar    1  UNL1        0.0827
      5 C          64.6473   92.6125   10.3532 C.ar    1  UNL1        0.0200
      6 C          65.5674   93.2699   11.3386 C.ar    1  UNL1        0.0129
      7 C          65.7001   92.7157   12.7262 C.ar    1  UNL1        0.0578
      8 CL         66.6203   93.3732   13.7116 Cl      1  UNL1       -0.0822
      9 C          64.9127   91.5040   13.1282 C.ar    1  UNL1        0.0129
     10 C          63.9926   90.8466   12.1428 C.ar    1  UNL1        0.0187
     11 C          63.2051   89.6348   12.5449 C.ar    1  UNL1        0.0053
     12 N          61.2322   88.8741    9.1865 N.pl3   1  UNL1       -0.2932
     13 C          60.2207   89.6942    8.4420 C.3     1  UNL1        0.0922
     14 C          59.3006   89.0367    7.4566 C.3     1  UNL1        0.0215
     15 C          59.3920   87.5590    7.2157 C.3     1  UNL1        0.0035
     16 C          60.4034   86.7388    7.9602 C.3     1  UNL1        0.0215
     17 C          61.3235   87.3964    8.9456 C.3     1  UNL1        0.0922
     18 C          63.3378   89.0806   13.9324 C.ar    1  UNL1        0.0002
     19 C          62.7485   89.8220   15.0957 C.ar    1  UNL1        0.0000
     20 C          62.8812   89.2678   16.4832 C.ar    1  UNL1        0.0000
     21 C          63.6031   87.9721   16.7075 C.ar    1  UNL1        0.0000
     22 C          64.1924   87.2308   15.5442 C.ar    1  UNL1        0.0000
     23 C          64.0597   87.7850   14.1567 C.ar    1  UNL1        0.0000
     24 O          62.1867   86.4432   12.1241 O.co2   1  UNL1       -0.5445
     25 C          61.4975   87.7656   11.9615 C.2     1  UNL1        0.0756
     26 O          60.0209   87.8762   12.2011 O.co2   1  UNL1       -0.5445
@<TRIPOS>UNITY_ATOM_ATTR
24 1
charge -1
@<TRIPOS>BOND
     1    24    25   ar
     2    25    26   ar
     3    25     1    1
     4     1     2   ar
     5     2    12    1
     6    12    13    1
     7    13    14    1
     8    14    15    1
     9    15    16    1
    10    16    17    1
    11     2     3   ar
    12     3     4   ar
    13     4     5   ar
    14     5     6   ar
    15     6     7   ar
    16     7     8    1
    17     7     9   ar
    18     9    10   ar
    19    10    11   ar
    20    11    18    1
    21    18    19   ar
    22    19    20   ar
    23    20    21   ar
    24    21    22   ar
    25    22    23   ar
    26    11     1   ar
    27    23    18   ar
    28    17    12    1
    29    10     4   ar
@<TRIPOS>MOLECULE
*****
 26 29 0 0 0
SMALL
GASTEIGER

@<TRIPOS>ATOM
      1 C          63.6119   86.7156   13.7133 C.ar    1  UNL1        0.0456
      2 C          63.1456   85.6280   12.7915 C.ar    1  UNL1        0.1327
      3 N          62.5862   85.9756   11.4439 N.ar    1  UNL1       -0.2307
      4 C          62.4930   87.4109   11.0179 C.ar    1  UNL1        0.0827
      5 C          61.9336   87.7585    9.6703 C.ar    1  UNL1        0.0200
      6 C          61.8404   89.1937    9.2445 C.ar    1  UNL1        0.0129
      7 C          62.3066   90.2814   10.1662 C.ar    1  UNL1        0.0578
      8 CL         62.2134   91.7166    9.7403 Cl      1  UNL1       -0.0822
      9 C          62.8661   89.9338   11.5139 C.ar    1  UNL1        0.0129
     10 C          62.9592   88.4985   11.9397 C.ar    1  UNL1        0.0187
     11 C          63.5187   88.1509   13.2874 C.ar    1  UNL1        0.0053
     12 N          63.2388   84.1927   13.2174 N.pl3   1  UNL1       -0.2932
     13 C          64.3413   83.3237   12.6890 C.3     1  UNL1        0.0922
     14 C          64.4344   81.8885   13.1149 C.3     1  UNL1        0.0215
     15 C          63.4252   81.3223   14.0693 C.3     1  UNL1        0.0035
     16 C          62.3227   82.1914   14.5977 C.3     1  UNL1        0.0215
     17 C          62.2295   83.6266   14.1718 C.3     1  UNL1        0.0922
     18 C          63.9849   89.2385   14.2092 C.ar    1  UNL1        0.0002
     19 C          65.2169   90.0269   13.8763 C.ar    1  UNL1        0.0000
     20 C          65.6831   91.1145   14.7981 C.ar    1  UNL1        0.0000
     21 C          64.9174   91.4137   16.0528 C.ar    1  UNL1        0.0000
     22 C          63.6855   90.6254   16.3856 C.ar    1  UNL1        0.0000
     23 C          63.2192   89.5378   15.4638 C.ar    1  UNL1        0.0000
     24 O          65.6336   86.0695   15.2118 O.co2   1  UNL1       -0.5445
     25 C          64.1713   86.3680   15.0610 C.2     1  UNL1        0.0756
     26 O          63.2685   86.3188   16.2578 O.co2   1  UNL1       -0.5445
@<TRIPOS>UNITY_ATOM_ATTR
24 1
charge -1
@<TRIPOS>BOND
     1    24    25   ar
     2    25    26   ar
     3    25     1    1
     4     1     2   ar
     5     2    12    1
     6    12    13    1
     7    13    14    1
     8    14    15    1
     9    15    16    1
    10    16    17    1
    11     2     3   ar
    12     3     4   ar
    13     4     5   ar
    14     5     6   ar
    15     6     7   ar
    16     7     8    1
    17     7     9   ar
    18     9    10   ar
    19    10    11   ar
    20    11    18    1
    21    18    19   ar
    22    19    20   ar
    23    20    21   ar
    24    21    22   ar
    25    22    23   ar
    26    11     1   ar
    27    23    18   ar
    28    17    12    1
    29    10     4   ar
