@<TRIPOS>MOLECULE
*****
 39 45 0 0 0
SMALL
GASTEIGER

@<TRIPOS>ATOM
      1 C          62.9854   85.1270   13.1480 C.ar    1  UNL1        0.2389
      2 N          62.2289   85.7033   11.9881 N.ar    1  UNL1       -0.1956
      3 C          62.2768   87.1784   11.7198 C.ar    1  UNL1        0.1424
      4 C          63.0812   88.0771   12.6116 C.ar    1  UNL1        0.0785
      5 S          63.3155   89.5586   12.5955 S.2     1  UNL1       -0.0856
      6 C          64.2167   89.8979   13.7455 C.ar    1  UNL1        0.0251
      7 C          64.5395   88.6261   14.4723 C.ar    1  UNL1        0.0233
      8 C          63.8377   87.5008   13.7715 C.ar    1  UNL1        0.0933
      9 N          63.7898   86.0258   14.0398 N.ar    1  UNL1       -0.2105
     10 C          62.8390   83.0039   14.7655 C.ar    1  UNL1        0.1263
     11 N          62.8203   81.5174   14.5654 N.ar    1  UNL1       -0.2305
     12 C          62.9072   81.2468   13.0926 C.ar    1  UNL1        0.0987
     13 C          62.9297   79.9695   12.3064 C.ar    1  UNL1        0.0206
     14 C          63.0247   80.0115   10.8101 C.ar    1  UNL1        0.0016
     15 C          63.0971   81.3307   10.0998 C.ar    1  UNL1        0.0016
     16 C          63.0745   82.6080   10.8860 C.ar    1  UNL1        0.0192
     17 C          62.9796   82.5660   12.3823 C.ar    1  UNL1        0.0854
     18 N          62.9375   83.6519   13.4163 N.ar    1  UNL1       -0.2632
     19 C          61.9509   84.9655   16.2191 C.3     1  UNL1        0.0084
     20 C          62.7712   83.7171   16.0833 C.3     1  UNL1        0.0644
     21 N          61.5203   87.7547   10.5599 N.pl3   1  UNL1       -0.2876
     22 C          61.3398   86.9492    9.3075 C.3     1  UNL1        0.1243
     23 C          60.5833   87.5255    8.1475 C.3     1  UNL1        0.1636
     24 O          60.0073   88.9074    8.2399 O.3     1  UNL1       -0.3501
     25 C          60.1878   89.7129    9.4923 C.3     1  UNL1        0.1636
     26 C          60.9443   89.1366   10.6523 C.3     1  UNL1        0.1243
     27 C          64.7088   91.2683   14.1055 C.3     1  UNL1        0.1057
     28 N          65.2197   92.1870   13.0353 N.3     1  UNL1       -0.2686
     29 C          64.7913   91.9908   11.6112 C.3     1  UNL1        0.0899
     30 C          65.3021   92.9093   10.5410 C.3     1  UNL1        0.0898
     31 N          66.2413   94.0240   10.8949 N.3     1  UNL1       -0.2674
     32 C          66.6697   94.2202   12.3190 C.3     1  UNL1        0.0870
     33 C          66.1589   93.3017   13.3892 C.3     1  UNL1        0.0605
     34 C          65.9490   92.6974   14.7459 C.3     1  UNL1        0.0174
     35 C          67.0252   94.2066   14.2143 C.3     1  UNL1        0.0174
     36 C          66.7522   94.9426    9.8248 C.3     1  UNL1        0.1173
     37 C          67.3471   94.7545    8.4607 C.3     1  UNL1        0.1606
     38 O          67.4747   96.2416    8.3112 O.3     1  UNL1       -0.3507
     39 C          66.8797   96.4296    9.6753 C.3     1  UNL1        0.1606
@<TRIPOS>BOND
     1    19    20    1
     2    20    10    1
     3    10    11   ar
     4    11    12   ar
     5    12    13   ar
     6    13    14   ar
     7    14    15   ar
     8    15    16   ar
     9    16    17   ar
    10    17    18   ar
    11    18     1    1
    12     1     2   ar
    13     2     3   ar
    14     3    21    1
    15    21    22    1
    16    22    23    1
    17    23    24    1
    18    24    25    1
    19    25    26    1
    20     3     4   ar
    21     4     5   ar
    22     5     6   ar
    23     6    27    1
    24    27    28    1
    25    28    29    1
    26    29    30    1
    27    30    31    1
    28    31    36    1
    29    36    37    1
    30    37    38    1
    31    38    39    1
    32    31    32    1
    33    32    33    1
    34    33    34    1
    35    33    35    1
    36     6     7   ar
    37     7     8   ar
    38     8     9   ar
    39    18    10   ar
    40     9     1   ar
    41    17    12   ar
    42    26    21    1
    43     8     4   ar
    44    33    28    1
    45    39    36    1
@<TRIPOS>MOLECULE
*****
 39 45 0 0 0
SMALL
GASTEIGER

@<TRIPOS>ATOM
      1 C          62.4712   85.2215   12.5228 C.ar    1  UNL1        0.2389
      2 N          61.6542   85.4609   11.2879 N.ar    1  UNL1       -0.1956
      3 C          61.5797   86.8358   10.6927 C.ar    1  UNL1        0.1424
      4 C          62.3223   87.9712   11.3324 C.ar    1  UNL1        0.0785
      5 S          62.4366   89.4236   10.9752 S.2     1  UNL1       -0.0856
      6 C          63.3244   90.0819   11.9894 C.ar    1  UNL1        0.0251
      7 C          63.7587   89.0363   12.9733 C.ar    1  UNL1        0.0233
      8 C          63.1394   87.7319   12.5673 C.ar    1  UNL1        0.0933
      9 N          63.2139   86.3571   13.1625 N.ar    1  UNL1       -0.2105
     10 C          62.4814   83.5139   14.5792 C.ar    1  UNL1        0.1263
     11 N          62.5936   82.0248   14.7207 N.ar    1  UNL1       -0.2305
     12 C          62.7272   81.4373   13.3471 C.ar    1  UNL1        0.0987
     13 C          62.8721   80.0225   12.8702 C.ar    1  UNL1        0.0206
     14 C          62.9873   79.7338   11.4028 C.ar    1  UNL1        0.0016
     15 C          62.9578   80.8598   10.4123 C.ar    1  UNL1        0.0016
     16 C          62.8129   82.2746   10.8891 C.ar    1  UNL1        0.0192
     17 C          62.6977   82.5633   12.3565 C.ar    1  UNL1        0.0854
     18 N          62.5457   83.8467   13.1180 N.ar    1  UNL1       -0.2632
     19 C          63.5259   85.2558   16.1993 C.3     1  UNL1        0.0084
     20 C          62.3312   84.4974   15.7017 C.3     1  UNL1        0.0644
     21 N          60.7625   87.0751    9.4578 N.pl3   1  UNL1       -0.2876
     22 C          60.4952   85.9478    8.5051 C.3     1  UNL1        0.1243
     23 C          59.6781   86.1871    7.2702 C.3     1  UNL1        0.1636
     24 O          59.1283   87.5539    6.9879 O.3     1  UNL1       -0.3501
     25 C          59.3956   88.6812    7.9406 C.3     1  UNL1        0.1636
     26 C          60.2127   88.4419    9.1755 C.3     1  UNL1        0.1243
     27 C          63.7101   91.5311   12.0151 C.3     1  UNL1        0.1057
     28 N          64.8651   91.9850   12.8578 N.3     1  UNL1       -0.2686
     29 C          64.9217   91.6200   14.3117 C.3     1  UNL1        0.0899
     30 C          66.0766   92.0738   15.1545 C.3     1  UNL1        0.0898
     31 N          67.1748   92.8926   14.5434 N.3     1  UNL1       -0.2674
     32 C          67.1183   93.2576   13.0896 C.3     1  UNL1        0.0870
     33 C          65.9634   92.8037   12.2468 C.3     1  UNL1        0.0605
     34 C          65.0838   92.6110   11.0471 C.3     1  UNL1        0.0174
     35 C          66.7562   93.5556   11.2191 C.3     1  UNL1        0.0174
     36 C          68.3297   93.3464   15.3861 C.3     1  UNL1        0.1173
     37 C          69.4984   92.6683   16.0377 C.3     1  UNL1        0.1606
     38 O          69.9631   93.9882   16.5780 O.3     1  UNL1       -0.3507
     39 C          68.7945   94.6663   15.9264 C.3     1  UNL1        0.1606
@<TRIPOS>BOND
     1    19    20    1
     2    20    10    1
     3    10    11   ar
     4    11    12   ar
     5    12    13   ar
     6    13    14   ar
     7    14    15   ar
     8    15    16   ar
     9    16    17   ar
    10    17    18   ar
    11    18     1    1
    12     1     2   ar
    13     2     3   ar
    14     3    21    1
    15    21    22    1
    16    22    23    1
    17    23    24    1
    18    24    25    1
    19    25    26    1
    20     3     4   ar
    21     4     5   ar
    22     5     6   ar
    23     6    27    1
    24    27    28    1
    25    28    29    1
    26    29    30    1
    27    30    31    1
    28    31    36    1
    29    36    37    1
    30    37    38    1
    31    38    39    1
    32    31    32    1
    33    32    33    1
    34    33    34    1
    35    33    35    1
    36     6     7   ar
    37     7     8   ar
    38     8     9   ar
    39    18    10   ar
    40     9     1   ar
    41    17    12   ar
    42    26    21    1
    43     8     4   ar
    44    33    28    1
    45    39    36    1
@<TRIPOS>MOLECULE
*****
 39 45 0 0 0
SMALL
GASTEIGER

@<TRIPOS>ATOM
      1 C          62.8653   84.7731   11.7205 C.ar    1  UNL1        0.2389
      2 N          61.9888   85.4983   10.7429 N.ar    1  UNL1       -0.1956
      3 C          61.8745   86.9928   10.8032 C.ar    1  UNL1        0.1424
      4 C          62.6369   87.7620   11.8410 C.ar    1  UNL1        0.0785
      5 S          62.7218   89.2290   12.1419 S.2     1  UNL1       -0.0856
      6 C          63.6509   89.4106   13.3054 C.ar    1  UNL1        0.0251
      7 C          64.1402   88.0557   13.7237 C.ar    1  UNL1        0.0233
      8 C          63.5134   87.0368   12.8186 C.ar    1  UNL1        0.0933
      9 N          63.6277   85.5424   12.7584 N.ar    1  UNL1       -0.2105
     10 C          63.6522   82.4888   10.5768 C.ar    1  UNL1        0.1263
     11 N          63.5296   81.0337   10.9198 N.ar    1  UNL1       -0.2305
     12 C          62.7813   80.9243   12.2152 C.ar    1  UNL1        0.0987
     13 C          62.3655   79.7405   13.0373 C.ar    1  UNL1        0.0206
     14 C          61.6098   79.9442   14.3168 C.ar    1  UNL1        0.0016
     15 C          61.2699   81.3317   14.7744 C.ar    1  UNL1        0.0016
     16 C          61.6857   82.5155   13.9524 C.ar    1  UNL1        0.0192
     17 C          62.4414   82.3118   12.6728 C.ar    1  UNL1        0.0854
     18 N          62.9796   83.2787   11.6602 N.ar    1  UNL1       -0.2632
     19 C          63.7298   84.2312    8.6512 C.3     1  UNL1        0.0084
     20 C          64.3285   83.0547    9.3634 C.3     1  UNL1        0.0644
     21 N          60.9980   87.7180    9.8256 N.pl3   1  UNL1       -0.2876
     22 C          60.1720   86.9441    8.8413 C.3     1  UNL1        0.1243
     23 C          59.2955   87.6693    7.8637 C.3     1  UNL1        0.1636
     24 O          59.2448   89.1684    7.8704 O.3     1  UNL1       -0.3501
     25 C          60.0707   89.9423    8.8547 C.3     1  UNL1        0.1636
     26 C          60.9473   89.2171    9.8323 C.3     1  UNL1        0.1243
     27 C          64.0251   90.7174   13.9395 C.3     1  UNL1        0.1057
     28 N          64.6850   91.7868   13.1202 N.3     1  UNL1       -0.2686
     29 C          64.3025   91.9727   11.6818 C.3     1  UNL1        0.0899
     30 C          64.9622   93.0421   10.8625 C.3     1  UNL1        0.0898
     31 N          66.0045   93.9254   11.4817 N.3     1  UNL1       -0.2674
     32 C          66.3870   93.7395   12.9201 C.3     1  UNL1        0.0870
     33 C          65.7272   92.6702   13.7394 C.3     1  UNL1        0.0605
     34 C          65.3885   91.8030   14.9156 C.3     1  UNL1        0.0174
     35 C          66.6518   93.2524   14.7671 C.3     1  UNL1        0.0174
     36 C          66.6643   94.9948   10.6625 C.3     1  UNL1        0.1173
     37 C          67.6119   95.0071    9.4997 C.3     1  UNL1        0.1606
     38 O          67.5975   96.5070    9.5038 O.3     1  UNL1       -0.3507
     39 C          66.6499   96.4946   10.6665 C.3     1  UNL1        0.1606
@<TRIPOS>BOND
     1    19    20    1
     2    20    10    1
     3    10    11   ar
     4    11    12   ar
     5    12    13   ar
     6    13    14   ar
     7    14    15   ar
     8    15    16   ar
     9    16    17   ar
    10    17    18   ar
    11    18     1    1
    12     1     2   ar
    13     2     3   ar
    14     3    21    1
    15    21    22    1
    16    22    23    1
    17    23    24    1
    18    24    25    1
    19    25    26    1
    20     3     4   ar
    21     4     5   ar
    22     5     6   ar
    23     6    27    1
    24    27    28    1
    25    28    29    1
    26    29    30    1
    27    30    31    1
    28    31    36    1
    29    36    37    1
    30    37    38    1
    31    38    39    1
    32    31    32    1
    33    32    33    1
    34    33    34    1
    35    33    35    1
    36     6     7   ar
    37     7     8   ar
    38     8     9   ar
    39    18    10   ar
    40     9     1   ar
    41    17    12   ar
    42    26    21    1
    43     8     4   ar
    44    33    28    1
    45    39    36    1
@<TRIPOS>MOLECULE
*****
 39 45 0 0 0
SMALL
GASTEIGER

@<TRIPOS>ATOM
      1 C          63.0195   89.7804   12.3040 C.ar    1  UNL1        0.2389
      2 N          63.1781   88.2949   12.1709 N.ar    1  UNL1       -0.1956
      3 C          62.4659   87.5598   11.0743 C.ar    1  UNL1        0.1424
      4 C          61.5951   88.3103   10.1108 C.ar    1  UNL1        0.0785
      5 S          60.7748   87.8597    8.9386 S.2     1  UNL1       -0.0856
      6 C          60.1093   89.0668    8.3471 C.ar    1  UNL1        0.0251
      7 C          60.5182   90.2635    9.1539 C.ar    1  UNL1        0.0233
      8 C          61.4364   89.7959   10.2439 C.ar    1  UNL1        0.0933
      9 N          62.1486   90.5310   11.3404 N.ar    1  UNL1       -0.2105
     10 C          63.5887   90.2590   14.8715 C.ar    1  UNL1        0.1263
     11 N          64.4806   91.2212   15.5986 N.ar    1  UNL1       -0.2305
     12 C          65.1748   92.0723   14.5771 C.ar    1  UNL1        0.0987
     13 C          66.1686   93.1881   14.7084 C.ar    1  UNL1        0.0206
     14 C          66.6996   93.8678   13.4813 C.ar    1  UNL1        0.0016
     15 C          66.2368   93.4317   12.1227 C.ar    1  UNL1        0.0016
     16 C          65.2430   92.3159   11.9914 C.ar    1  UNL1        0.0192
     17 C          64.7120   91.6362   13.2186 C.ar    1  UNL1        0.0854
     18 N          63.7317   90.5155   13.4005 N.ar    1  UNL1       -0.2632
     19 C          63.0677   88.6490   16.8429 C.3     1  UNL1        0.0084
     20 C          62.7083   89.2223   15.5042 C.3     1  UNL1        0.0644
     21 N          62.6245   86.0741   10.9413 N.pl3   1  UNL1       -0.2876
     22 C          62.4508   85.1908   12.1411 C.3     1  UNL1        0.1243
     23 C          62.6094   83.7052   12.0080 C.3     1  UNL1        0.1636
     24 O          62.9418   83.1028   10.6751 O.3     1  UNL1       -0.3501
     25 C          63.1155   83.9861    9.4753 C.3     1  UNL1        0.1636
     26 C          62.9569   85.4717    9.6084 C.3     1  UNL1        0.1243
     27 C          59.1954   89.0758    7.1578 C.3     1  UNL1        0.1057
     28 N          59.3972   90.0827    6.0644 N.3     1  UNL1       -0.2686
     29 C          60.7837   90.4187    5.6009 C.3     1  UNL1        0.0899
     30 C          60.9857   91.4255    4.5075 C.3     1  UNL1        0.0898
     31 N          59.8012   92.0963    3.8776 N.3     1  UNL1       -0.2674
     32 C          58.4147   91.7604    4.3410 C.3     1  UNL1        0.0870
     33 C          58.2127   90.7536    5.4344 C.3     1  UNL1        0.0605
     34 C          57.5152   89.8736    6.4291 C.3     1  UNL1        0.0174
     35 C          56.7859   91.1188    5.1499 C.3     1  UNL1        0.0174
     36 C          60.0030   93.1031    2.7842 C.3     1  UNL1        0.1173
     37 C          60.5067   94.5147    2.7219 C.3     1  UNL1        0.1606
     38 O          60.2886   94.5271    1.2379 O.3     1  UNL1       -0.3507
     39 C          59.7850   93.1155    1.3002 C.3     1  UNL1        0.1606
@<TRIPOS>BOND
     1    19    20    1
     2    20    10    1
     3    10    11   ar
     4    11    12   ar
     5    12    13   ar
     6    13    14   ar
     7    14    15   ar
     8    15    16   ar
     9    16    17   ar
    10    17    18   ar
    11    18     1    1
    12     1     2   ar
    13     2     3   ar
    14     3    21    1
    15    21    22    1
    16    22    23    1
    17    23    24    1
    18    24    25    1
    19    25    26    1
    20     3     4   ar
    21     4     5   ar
    22     5     6   ar
    23     6    27    1
    24    27    28    1
    25    28    29    1
    26    29    30    1
    27    30    31    1
    28    31    36    1
    29    36    37    1
    30    37    38    1
    31    38    39    1
    32    31    32    1
    33    32    33    1
    34    33    34    1
    35    33    35    1
    36     6     7   ar
    37     7     8   ar
    38     8     9   ar
    39    18    10   ar
    40     9     1   ar
    41    17    12   ar
    42    26    21    1
    43     8     4   ar
    44    33    28    1
    45    39    36    1
@<TRIPOS>MOLECULE
*****
 39 45 0 0 0
SMALL
GASTEIGER

@<TRIPOS>ATOM
      1 C          64.6922   90.6646   13.2238 C.ar    1  UNL1        0.2389
      2 N          63.7004   90.3767   12.1361 N.ar    1  UNL1       -0.1956
      3 C          63.0919   89.0107   12.0182 C.ar    1  UNL1        0.1424
      4 C          63.4754   87.9326   12.9881 C.ar    1  UNL1        0.0785
      5 S          63.0454   86.5016   13.1198 S.2     1  UNL1       -0.0856
      6 C          63.7716   85.9051   14.2889 C.ar    1  UNL1        0.0251
      7 C          64.6504   86.9674   14.8798 C.ar    1  UNL1        0.0233
      8 C          64.4673   88.2205   14.0758 C.ar    1  UNL1        0.0933
      9 N          65.0757   89.5865   14.1937 N.ar    1  UNL1       -0.2105
     10 C          65.7343   92.6958   14.6143 C.ar    1  UNL1        0.1263
     11 N          66.2839   94.0475   14.2668 N.ar    1  UNL1       -0.2305
     12 C          66.1899   94.2178   12.7794 C.ar    1  UNL1        0.0987
     13 C          66.5791   95.3468   11.8719 C.ar    1  UNL1        0.0206
     14 C          66.3606   95.2293   10.3925 C.ar    1  UNL1        0.0016
     15 C          65.7529   93.9828    9.8208 C.ar    1  UNL1        0.0016
     16 C          65.3637   92.8537   10.7284 C.ar    1  UNL1        0.0192
     17 C          65.5822   92.9712   12.2077 C.ar    1  UNL1        0.0854
     18 N          65.3006   92.0306   13.3417 N.ar    1  UNL1       -0.2632
     19 C          64.3032   92.0215   16.6752 C.3     1  UNL1        0.0084
     20 C          65.6357   92.1118   15.9924 C.3     1  UNL1        0.0644
     21 N          62.1000   88.7228   10.9305 N.pl3   1  UNL1       -0.2876
     22 C          62.1634   87.4244   10.1820 C.3     1  UNL1        0.1243
     23 C          61.1715   87.1365    9.0943 C.3     1  UNL1        0.1636
     24 O          60.1162   88.1470    8.7549 O.3     1  UNL1       -0.3501
     25 C          60.0528   89.4454    9.5034 C.3     1  UNL1        0.1636
     26 C          61.0447   89.7333   10.5911 C.3     1  UNL1        0.1243
     27 C          63.6418   84.4941   14.7808 C.3     1  UNL1        0.1057
     28 N          63.4767   83.3703   13.8009 N.3     1  UNL1       -0.2686
     29 C          64.3819   83.2761   12.6085 C.3     1  UNL1        0.0899
     30 C          64.2169   82.1524   11.6286 C.3     1  UNL1        0.0898
     31 N          63.1468   81.1230   11.8411 N.3     1  UNL1       -0.2674
     32 C          62.2416   81.2173   13.0335 C.3     1  UNL1        0.0870
     33 C          62.4066   82.3409   14.0134 C.3     1  UNL1        0.0605
     34 C          62.1715   83.2122   15.2116 C.3     1  UNL1        0.0174
     35 C          61.2548   81.6142   14.6421 C.3     1  UNL1        0.0174
     36 C          62.9818   79.9994   10.8613 C.3     1  UNL1        0.1173
     37 C          63.0149   79.8824    9.3662 C.3     1  UNL1        0.1606
     38 O          62.7484   78.4103    9.4755 O.3     1  UNL1       -0.3507
     39 C          62.7153   78.5273   10.9705 C.3     1  UNL1        0.1606
@<TRIPOS>BOND
     1    19    20    1
     2    20    10    1
     3    10    11   ar
     4    11    12   ar
     5    12    13   ar
     6    13    14   ar
     7    14    15   ar
     8    15    16   ar
     9    16    17   ar
    10    17    18   ar
    11    18     1    1
    12     1     2   ar
    13     2     3   ar
    14     3    21    1
    15    21    22    1
    16    22    23    1
    17    23    24    1
    18    24    25    1
    19    25    26    1
    20     3     4   ar
    21     4     5   ar
    22     5     6   ar
    23     6    27    1
    24    27    28    1
    25    28    29    1
    26    29    30    1
    27    30    31    1
    28    31    36    1
    29    36    37    1
    30    37    38    1
    31    38    39    1
    32    31    32    1
    33    32    33    1
    34    33    34    1
    35    33    35    1
    36     6     7   ar
    37     7     8   ar
    38     8     9   ar
    39    18    10   ar
    40     9     1   ar
    41    17    12   ar
    42    26    21    1
    43     8     4   ar
    44    33    28    1
    45    39    36    1
