@<TRIPOS>MOLECULE
*****
 36 40 0 0 0
SMALL
GASTEIGER

@<TRIPOS>ATOM
      1 N          65.4398   92.7971   11.8842 N.ar    1  UNL1       -0.2756
      2 C          66.3288   93.5169   12.8546 C.ar    1  UNL1        0.3342
      3 O          67.2007   94.6417   12.3808 O.2     1  UNL1       -0.2462
      4 N          66.3457   93.1119   14.2988 N.ar    1  UNL1       -0.2467
      5 C          67.2347   93.8317   15.2691 C.3     1  UNL1        0.1382
      6 C          65.4737   91.9871   14.7726 C.ar    1  UNL1        0.2664
      7 O          65.4907   91.5821   16.2167 O.2     1  UNL1       -0.2668
      8 C          64.5848   91.2673   13.8022 C.ar    1  UNL1        0.0863
      9 C          63.6231   90.1293   13.9758 C.ar    1  UNL1        0.1009
     10 C          63.0118   89.8310   12.6389 C.ar    1  UNL1        0.1808
     11 S          63.5956   90.7847   11.6390 S.2     1  UNL1       -0.0324
     12 C          64.5678   91.6724   12.3580 C.ar    1  UNL1        0.1014
     13 C          63.3251   89.4151   15.2607 C.2     1  UNL1        0.2528
     14 O          62.6885   90.1548   16.3998 O.2     1  UNL1       -0.2698
     15 N          63.6636   87.9611   15.4065 N.am    1  UNL1       -0.2734
     16 C          63.4261   87.1183   16.6243 C.3     1  UNL1        0.0964
     17 C          63.9148   85.7309   16.3305 C.3     1  UNL1        0.0525
     18 C          64.4544   85.7162   14.9310 C.3     1  UNL1        0.1320
     19 O          65.0454   84.5313   14.2262 O.3     1  UNL1       -0.3827
     20 C          64.2991   87.0946   14.3599 C.3     1  UNL1        0.1228
     21 H          65.3177   84.7897   13.3318 H       1  UNL1        0.2104
     22 C          65.4228   93.2022   10.4400 C.3     1  UNL1        0.1109
     23 C          67.7448   92.2902    9.7144 C.3     1  UNL1        0.0020
     24 C          66.7129   93.3787    9.6954 C.3     1  UNL1        0.0228
     25 C          66.9710   94.6437    8.9318 C.3     1  UNL1        0.0020
     26 O          61.9951   88.7661   12.3521 O.3     1  UNL1       -0.4469
     27 C          61.3355   88.7018   11.0065 C.ar    1  UNL1        0.1459
     28 C          60.4453   89.8207   10.5533 C.ar    1  UNL1        0.0375
     29 C          59.7857   89.7564    9.2076 C.ar    1  UNL1        0.0031
     30 C          60.0162   88.5730    8.3152 C.ar    1  UNL1        0.0002
     31 C          60.9064   87.4539    8.7684 C.ar    1  UNL1        0.0029
     32 C          61.1369   86.2706    7.8760 C.ar    1  UNL1        0.0001
     33 C          62.0270   85.1516    8.3292 C.ar    1  UNL1        0.0000
     34 C          62.6866   85.2159    9.6748 C.ar    1  UNL1        0.0001
     35 C          62.4561   86.3993   10.5673 C.ar    1  UNL1        0.0030
     36 C          61.5660   87.5183   10.1141 C.ar    1  UNL1        0.0346
@<TRIPOS>BOND
     1    23    24    1
     2    24    25    1
     3    24    22    1
     4    22     1    1
     5     1     2   ar
     6     2     3    2
     7     2     4   ar
     8     4     5    1
     9     4     6   ar
    10     6     7    2
    11     6     8   ar
    12     8     9   ar
    13     9    13    1
    14    13    14    2
    15    13    15   am
    16    15    16    1
    17    16    17    1
    18    17    18    1
    19    18    19    1
    20    18    20    1
    21     9    10   ar
    22    10    26    1
    23    26    27    1
    24    27    28   ar
    25    28    29   ar
    26    29    30   ar
    27    30    31   ar
    28    31    32   ar
    29    32    33   ar
    30    33    34   ar
    31    34    35   ar
    32    35    36   ar
    33    10    11   ar
    34    11    12   ar
    35    12     1   ar
    36    12     8   ar
    37    20    15    1
    38    36    27   ar
    39    36    31   ar
    40    19    21    1
@<TRIPOS>MOLECULE
*****
 36 40 0 0 0
SMALL
GASTEIGER

@<TRIPOS>ATOM
      1 N          65.2837   92.4614   11.8840 N.ar    1  UNL1       -0.2756
      2 C          66.1228   93.1513   12.9185 C.ar    1  UNL1        0.3342
      3 O          67.0168   94.2887   12.5222 O.2     1  UNL1       -0.2462
      4 N          66.0678   92.7039   14.3491 N.ar    1  UNL1       -0.2467
      5 C          66.9069   93.3938   15.3834 C.3     1  UNL1        0.1382
      6 C          65.1737   91.5665   14.7454 C.ar    1  UNL1        0.2664
      7 O          65.1187   91.1191   16.1760 O.2     1  UNL1       -0.2668
      8 C          64.3346   90.8766   13.7110 C.ar    1  UNL1        0.0863
      9 C          63.3660   89.7350   13.8027 C.ar    1  UNL1        0.1009
     10 C          62.8223   89.4769   12.4287 C.ar    1  UNL1        0.1808
     11 S          63.4549   90.4590   11.4879 S.2     1  UNL1       -0.0324
     12 C          64.3896   91.3241   12.2803 C.ar    1  UNL1        0.1014
     13 C          63.0045   88.9835   15.0495 C.2     1  UNL1        0.2528
     14 O          62.0111   89.5625   16.0128 O.2     1  UNL1       -0.2698
     15 N          63.6364   87.6529   15.3330 N.am    1  UNL1       -0.2734
     16 C          63.3750   86.7903   16.5319 C.3     1  UNL1        0.0964
     17 C          64.2176   85.5557   16.4073 C.3     1  UNL1        0.0525
     18 C          64.9999   85.6553   15.1313 C.3     1  UNL1        0.1320
     19 O          65.9709   84.6374   14.6105 O.3     1  UNL1       -0.3827
     20 C          64.6406   86.9515   14.4673 C.3     1  UNL1        0.1228
     21 H          66.3396   84.9439   13.7673 H       1  UNL1        0.2104
     22 C          65.3387   92.9089   10.4534 C.3     1  UNL1        0.1109
     23 C          66.8927   94.5591    9.1839 C.3     1  UNL1        0.0020
     24 C          66.6601   93.2181    9.8146 C.3     1  UNL1        0.0228
     25 C          67.7489   92.1865    9.8064 C.3     1  UNL1        0.0020
     26 O          61.8217   88.4219   12.0603 O.3     1  UNL1       -0.4469
     27 C          62.1727   87.3784   11.0416 C.ar    1  UNL1        0.1459
     28 C          62.2896   87.7530    9.5939 C.ar    1  UNL1        0.0375
     29 C          62.6406   86.7094    8.5752 C.ar    1  UNL1        0.0031
     30 C          62.8746   85.2913    9.0042 C.ar    1  UNL1        0.0002
     31 C          62.7577   84.9166   10.4520 C.ar    1  UNL1        0.0029
     32 C          62.9916   83.4985   10.8810 C.ar    1  UNL1        0.0001
     33 C          62.8746   83.1239   12.3287 C.ar    1  UNL1        0.0000
     34 C          62.5237   84.1675   13.3474 C.ar    1  UNL1        0.0001
     35 C          62.2897   85.5856   12.9184 C.ar    1  UNL1        0.0030
     36 C          62.4067   85.9602   11.4707 C.ar    1  UNL1        0.0346
@<TRIPOS>BOND
     1    23    24    1
     2    24    25    1
     3    24    22    1
     4    22     1    1
     5     1     2   ar
     6     2     3    2
     7     2     4   ar
     8     4     5    1
     9     4     6   ar
    10     6     7    2
    11     6     8   ar
    12     8     9   ar
    13     9    13    1
    14    13    14    2
    15    13    15   am
    16    15    16    1
    17    16    17    1
    18    17    18    1
    19    18    19    1
    20    18    20    1
    21     9    10   ar
    22    10    26    1
    23    26    27    1
    24    27    28   ar
    25    28    29   ar
    26    29    30   ar
    27    30    31   ar
    28    31    32   ar
    29    32    33   ar
    30    33    34   ar
    31    34    35   ar
    32    35    36   ar
    33    10    11   ar
    34    11    12   ar
    35    12     1   ar
    36    12     8   ar
    37    20    15    1
    38    36    27   ar
    39    36    31   ar
    40    19    21    1
@<TRIPOS>MOLECULE
*****
 36 40 0 0 0
SMALL
GASTEIGER

@<TRIPOS>ATOM
      1 N          63.0019   89.2306   11.1452 N.ar    1  UNL1       -0.2756
      2 C          62.8536   87.9241   11.8672 C.ar    1  UNL1        0.3342
      3 O          62.1686   86.7703   11.1969 O.2     1  UNL1       -0.2462
      4 N          63.3903   87.7716   13.2596 N.ar    1  UNL1       -0.2467
      5 C          63.2419   86.4652   13.9816 C.3     1  UNL1        0.1382
      6 C          64.0753   88.9254   13.9300 C.ar    1  UNL1        0.2664
      7 O          64.6120   88.7729   15.3223 O.2     1  UNL1       -0.2668
      8 C          64.2236   90.2318   13.2080 C.ar    1  UNL1        0.0863
      9 C          64.8471   91.5356   13.6099 C.ar    1  UNL1        0.1009
     10 C          64.6957   92.4939   12.4659 C.ar    1  UNL1        0.1808
     11 S          63.9787   91.7825   11.3570 S.2     1  UNL1       -0.0324
     12 C          63.6869   90.3844   11.8156 C.ar    1  UNL1        0.1014
     13 C          65.5061   91.8294   14.9249 C.2     1  UNL1        0.2528
     14 O          64.6783   91.9379   16.1710 O.2     1  UNL1       -0.2698
     15 N          66.9931   92.0147   14.9937 N.am    1  UNL1       -0.2734
     16 C          67.7883   92.3115   16.2304 C.3     1  UNL1        0.0964
     17 C          69.2325   92.4160   15.8390 C.3     1  UNL1        0.0525
     18 C          69.3299   92.1837   14.3603 C.3     1  UNL1        0.1320
     19 O          70.5901   92.1971   13.5468 O.3     1  UNL1       -0.3827
     20 C          67.9458   91.9357   13.8379 C.3     1  UNL1        0.1228
     21 H          70.3769   92.0190   12.6174 H       1  UNL1        0.2104
     22 C          62.4652   89.3831    9.7529 C.3     1  UNL1        0.1109
     23 C          60.1538   90.3289   10.4690 C.3     1  UNL1        0.0020
     24 C          60.9876   89.5103    9.5284 C.3     1  UNL1        0.0228
     25 C          60.3438   88.8190    8.3633 C.3     1  UNL1        0.0020
     26 O          65.1768   93.9143   12.4361 O.3     1  UNL1       -0.4469
     27 C          65.7126   94.4981   11.1624 C.ar    1  UNL1        0.1459
     28 C          65.2027   95.8202   10.6706 C.ar    1  UNL1        0.0375
     29 C          65.7386   96.4040    9.3970 C.ar    1  UNL1        0.0031
     30 C          66.7843   95.6657    8.6152 C.ar    1  UNL1        0.0002
     31 C          67.2943   94.3435    9.1071 C.ar    1  UNL1        0.0029
     32 C          68.3401   93.6052    8.3253 C.ar    1  UNL1        0.0001
     33 C          68.8500   92.2831    8.8171 C.ar    1  UNL1        0.0000
     34 C          68.3141   91.6993   10.0907 C.ar    1  UNL1        0.0001
     35 C          67.2684   92.4376   10.8725 C.ar    1  UNL1        0.0030
     36 C          66.7585   93.7597   10.3807 C.ar    1  UNL1        0.0346
@<TRIPOS>BOND
     1    23    24    1
     2    24    25    1
     3    24    22    1
     4    22     1    1
     5     1     2   ar
     6     2     3    2
     7     2     4   ar
     8     4     5    1
     9     4     6   ar
    10     6     7    2
    11     6     8   ar
    12     8     9   ar
    13     9    13    1
    14    13    14    2
    15    13    15   am
    16    15    16    1
    17    16    17    1
    18    17    18    1
    19    18    19    1
    20    18    20    1
    21     9    10   ar
    22    10    26    1
    23    26    27    1
    24    27    28   ar
    25    28    29   ar
    26    29    30   ar
    27    30    31   ar
    28    31    32   ar
    29    32    33   ar
    30    33    34   ar
    31    34    35   ar
    32    35    36   ar
    33    10    11   ar
    34    11    12   ar
    35    12     1   ar
    36    12     8   ar
    37    20    15    1
    38    36    27   ar
    39    36    31   ar
    40    19    21    1
@<TRIPOS>MOLECULE
*****
 36 40 0 0 0
SMALL
GASTEIGER

@<TRIPOS>ATOM
      1 N          61.2410   87.8619   10.0896 N.ar    1  UNL1       -0.2756
      2 C          60.7991   87.3922    8.7353 C.ar    1  UNL1        0.3342
      3 O          59.9756   88.2914    7.8615 O.2     1  UNL1       -0.2462
      4 N          61.1806   86.0235    8.2548 N.ar    1  UNL1       -0.2467
      5 C          60.7386   85.5538    6.9005 C.3     1  UNL1        0.1382
      6 C          62.0040   85.1243    9.1286 C.ar    1  UNL1        0.2664
      7 O          62.3855   83.7556    8.6481 O.2     1  UNL1       -0.2668
      8 C          62.4460   85.5940   10.4828 C.ar    1  UNL1        0.0863
      9 C          63.2587   84.9352   11.5578 C.ar    1  UNL1        0.1009
     10 C          63.3795   85.8968   12.7026 C.ar    1  UNL1        0.1808
     11 S          62.6415   87.1499   12.3353 S.2     1  UNL1       -0.0324
     12 C          62.0645   86.9628   10.9634 C.ar    1  UNL1        0.1014
     13 C          63.8473   83.5568   11.4983 C.2     1  UNL1        0.2528
     14 O          65.0612   83.2953   10.6568 O.2     1  UNL1       -0.2698
     15 N          63.2220   82.4399   12.2802 N.am    1  UNL1       -0.2734
     16 C          63.6963   81.0174   12.3191 C.3     1  UNL1        0.0964
     17 C          62.7801   80.2478   13.2235 C.3     1  UNL1        0.0525
     18 C          61.7394   81.1946   13.7437 C.3     1  UNL1        0.1320
     19 O          60.6218   80.8475   14.6821 O.3     1  UNL1       -0.3827
     20 C          62.0125   82.5494   13.1607 C.3     1  UNL1        0.1228
     21 H          60.0917   81.6400   14.8607 H       1  UNL1        0.2104
     22 C          60.8595   89.2307   10.5701 C.3     1  UNL1        0.1109
     23 C          62.0617   90.7310   12.3176 C.3     1  UNL1        0.0020
     24 C          61.9251   90.2302   10.9103 C.3     1  UNL1        0.0228
     25 C          62.8539   90.7287    9.8433 C.3     1  UNL1        0.0020
     26 O          64.1101   85.6489   13.9890 O.3     1  UNL1       -0.4469
     27 C          63.6378   86.2970   15.2567 C.ar    1  UNL1        0.1459
     28 C          63.0284   85.4623   16.3437 C.ar    1  UNL1        0.0375
     29 C          62.5561   86.1103   17.6114 C.ar    1  UNL1        0.0031
     30 C          62.6934   87.5930   17.7920 C.ar    1  UNL1        0.0002
     31 C          63.3029   88.4278   16.7049 C.ar    1  UNL1        0.0029
     32 C          63.4401   89.9105   16.8855 C.ar    1  UNL1        0.0001
     33 C          64.0496   90.7452   15.7984 C.ar    1  UNL1        0.0000
     34 C          64.5218   90.0972   14.5307 C.ar    1  UNL1        0.0001
     35 C          64.3846   88.6144   14.3501 C.ar    1  UNL1        0.0030
     36 C          63.7751   87.7798   15.4372 C.ar    1  UNL1        0.0346
@<TRIPOS>BOND
     1    23    24    1
     2    24    25    1
     3    24    22    1
     4    22     1    1
     5     1     2   ar
     6     2     3    2
     7     2     4   ar
     8     4     5    1
     9     4     6   ar
    10     6     7    2
    11     6     8   ar
    12     8     9   ar
    13     9    13    1
    14    13    14    2
    15    13    15   am
    16    15    16    1
    17    16    17    1
    18    17    18    1
    19    18    19    1
    20    18    20    1
    21     9    10   ar
    22    10    26    1
    23    26    27    1
    24    27    28   ar
    25    28    29   ar
    26    29    30   ar
    27    30    31   ar
    28    31    32   ar
    29    32    33   ar
    30    33    34   ar
    31    34    35   ar
    32    35    36   ar
    33    10    11   ar
    34    11    12   ar
    35    12     1   ar
    36    12     8   ar
    37    20    15    1
    38    36    27   ar
    39    36    31   ar
    40    19    21    1
@<TRIPOS>MOLECULE
*****
 36 40 0 0 0
SMALL
GASTEIGER

@<TRIPOS>ATOM
      1 N          63.0970   88.0647   12.0191 N.ar    1  UNL1       -0.2756
      2 C          62.9323   87.0219   13.0847 C.ar    1  UNL1        0.3342
      3 O          62.3238   85.6933   12.7463 O.2     1  UNL1       -0.2462
      4 N          63.3761   87.3078   14.4888 N.ar    1  UNL1       -0.2467
      5 C          63.2113   86.2650   15.5543 C.3     1  UNL1        0.1382
      6 C          63.9846   88.6364   14.8272 C.ar    1  UNL1        0.2664
      7 O          64.4284   88.9222   16.2312 O.2     1  UNL1       -0.2668
      8 C          64.1493   89.6791   13.7616 C.ar    1  UNL1        0.0863
      9 C          64.7110   91.0695   13.7962 C.ar    1  UNL1        0.1009
     10 C          64.6144   91.6430   12.4135 C.ar    1  UNL1        0.1808
     11 S          63.9930   90.6070   11.5244 S.2     1  UNL1       -0.0324
     12 C          63.7056   89.3933   12.3575 C.ar    1  UNL1        0.1014
     13 C          65.2710   91.7644   15.0018 C.2     1  UNL1        0.2528
     14 O          64.3729   92.1119   16.1518 O.2     1  UNL1       -0.2698
     15 N          66.7292   92.1119   15.0574 N.am    1  UNL1       -0.2734
     16 C          67.4283   92.8029   16.1903 C.3     1  UNL1        0.0964
     17 C          68.8754   92.9474   15.8229 C.3     1  UNL1        0.0525
     18 C          69.0706   92.3456   14.4629 C.3     1  UNL1        0.1320
     19 O          70.3651   92.2729   13.7084 O.3     1  UNL1       -0.3827
     20 C          67.7442   91.8292   13.9898 C.3     1  UNL1        0.1228
     21 H          70.2179   91.8358   12.8550 H       1  UNL1        0.2104
     22 C          62.6533   87.7788   10.6151 C.3     1  UNL1        0.1109
     23 C          61.0603   89.5175    9.5244 C.3     1  UNL1        0.0020
     24 C          61.2792   88.1796   10.1665 C.3     1  UNL1        0.0228
     25 C          60.1240   87.2426   10.3600 C.3     1  UNL1        0.0020
     26 O          65.0608   93.0121   11.9937 O.3     1  UNL1       -0.4469
     27 C          66.1832   93.1664   11.0106 C.ar    1  UNL1        0.1459
     28 C          67.2277   92.0965   10.8908 C.ar    1  UNL1        0.0375
     29 C          68.3500   92.2508    9.9077 C.ar    1  UNL1        0.0031
     30 C          68.4279   93.4749    9.0444 C.ar    1  UNL1        0.0002
     31 C          67.3834   94.5449    9.1642 C.ar    1  UNL1        0.0029
     32 C          67.4613   95.7690    8.3009 C.ar    1  UNL1        0.0001
     33 C          66.4168   96.8389    8.4207 C.ar    1  UNL1        0.0000
     34 C          65.2945   96.6846    9.4038 C.ar    1  UNL1        0.0001
     35 C          65.2166   95.4605   10.2671 C.ar    1  UNL1        0.0030
     36 C          66.2611   94.3906   10.1473 C.ar    1  UNL1        0.0346
@<TRIPOS>BOND
     1    23    24    1
     2    24    25    1
     3    24    22    1
     4    22     1    1
     5     1     2   ar
     6     2     3    2
     7     2     4   ar
     8     4     5    1
     9     4     6   ar
    10     6     7    2
    11     6     8   ar
    12     8     9   ar
    13     9    13    1
    14    13    14    2
    15    13    15   am
    16    15    16    1
    17    16    17    1
    18    17    18    1
    19    18    19    1
    20    18    20    1
    21     9    10   ar
    22    10    26    1
    23    26    27    1
    24    27    28   ar
    25    28    29   ar
    26    29    30   ar
    27    30    31   ar
    28    31    32   ar
    29    32    33   ar
    30    33    34   ar
    31    34    35   ar
    32    35    36   ar
    33    10    11   ar
    34    11    12   ar
    35    12     1   ar
    36    12     8   ar
    37    20    15    1
    38    36    27   ar
    39    36    31   ar
    40    19    21    1
