@<TRIPOS>MOLECULE
*****
 32 35 0 0 0
SMALL
GASTEIGER

@<TRIPOS>ATOM
      1 O          59.3363   88.2833   12.3232 O.2     1  UNL1       -0.2742
      2 C          60.6666   88.3086   11.6307 C.2     1  UNL1        0.2336
      3 N          61.8111   89.0687   12.2325 N.am    1  UNL1       -0.2755
      4 C          63.1415   89.0940   11.5399 C.3     1  UNL1        0.1148
      5 C          64.2860   89.8542   12.1417 C.3     1  UNL1        0.1124
      6 N          64.1002   90.5890   13.4361 N.pl3   1  UNL1       -0.3029
      7 C          62.7700   90.5637   14.1287 C.3     1  UNL1        0.1124
      8 C          61.6254   89.8036   13.5269 C.3     1  UNL1        0.1148
      9 C          65.2447   91.3492   14.0380 C.ar    1  UNL1        0.0674
     10 C          65.2360   91.6849   15.5000 C.ar    1  UNL1        0.0176
     11 C          66.3805   92.4450   16.1018 C.ar    1  UNL1        0.0244
     12 C          67.5338   92.8695   15.2417 C.ar    1  UNL1        0.1527
     13 N          67.5426   92.5339   13.7798 N.ar    1  UNL1       -0.2386
     14 C          66.3980   91.7737   13.1779 C.ar    1  UNL1        0.1132
     15 C          68.6783   93.6297   15.8435 C.3     1  UNL1        0.4348
     16 F          69.8228   94.3899   16.4454 F       1  UNL1       -0.1644
     17 F          68.1847   94.8879   15.1930 F       1  UNL1       -0.1644
     18 F          69.1719   92.3714   16.4941 F       1  UNL1       -0.1644
     19 C          60.8524   87.5737   10.3363 C.3     1  UNL1        0.1241
     20 C          61.7286   86.3573   10.2835 C.ar    1  UNL1       -0.0096
     21 C          62.4172   85.9840    9.0043 C.ar    1  UNL1       -0.0026
     22 C          63.2933   84.7676    8.9515 C.ar    1  UNL1        0.0111
     23 C          63.4809   83.9246   10.1779 C.ar    1  UNL1        0.0577
     24 CL         64.3571   82.7082   10.1251 Cl      1  UNL1       -0.0822
     25 C          62.7923   84.2980   11.4571 C.ar    1  UNL1        0.0111
     26 C          61.9161   85.5143   11.5099 C.ar    1  UNL1       -0.0026
     27 C          60.1620   88.0552    9.0947 C.ar    1  UNL1        0.0286
     28 C          60.4368   89.4334    8.5703 C.ar    1  UNL1        0.0987
     29 N          59.7463   89.9149    7.3287 N.ar    1  UNL1       -0.2227
     30 C          58.7812   89.0181    6.6115 C.ar    1  UNL1        0.1989
     31 N          58.5064   87.6399    7.1360 N.ar    1  UNL1       -0.2227
     32 C          59.1968   87.1584    8.3775 C.ar    1  UNL1        0.0987
@<TRIPOS>BOND
     1     1     2    2
     2     2    19    1
     3    19    20    1
     4    20    21   ar
     5    21    22   ar
     6    22    23   ar
     7    23    24    1
     8    23    25   ar
     9    25    26   ar
    10    19    27    1
    11    27    28   ar
    12    28    29   ar
    13    29    30   ar
    14    30    31   ar
    15    31    32   ar
    16     2     3   am
    17     3     4    1
    18     4     5    1
    19     5     6    1
    20     6     9    1
    21     9    10   ar
    22    10    11   ar
    23    11    12   ar
    24    12    15    1
    25    15    16    1
    26    15    17    1
    27    15    18    1
    28    12    13   ar
    29    13    14   ar
    30     6     7    1
    31     7     8    1
    32    26    20   ar
    33    32    27   ar
    34     8     3    1
    35    14     9   ar
@<TRIPOS>MOLECULE
*****
 32 35 0 0 0
SMALL
GASTEIGER

@<TRIPOS>ATOM
      1 O          65.5126   96.3355   -2.8407 O.2     1  UNL1       -0.2742
      2 C          64.3230   95.4482   -3.0592 C.2     1  UNL1        0.2336
      3 N          63.6027   94.8566   -1.8839 N.am    1  UNL1       -0.2755
      4 C          62.4131   93.9694   -2.1024 C.3     1  UNL1        0.1148
      5 C          61.6927   93.3778   -0.9272 C.3     1  UNL1        0.1124
      6 N          62.1619   93.6735    0.4665 N.pl3   1  UNL1       -0.3029
      7 C          63.3515   94.5607    0.6850 C.3     1  UNL1        0.1124
      8 C          64.0719   95.1523   -0.4902 C.3     1  UNL1        0.1148
      9 C          61.4416   93.0820    1.6417 C.ar    1  UNL1        0.0674
     10 C          62.1853   92.2269    2.6245 C.ar    1  UNL1        0.0176
     11 C          61.4650   91.6354    3.7997 C.ar    1  UNL1        0.0244
     12 C          60.0009   91.8989    3.9922 C.ar    1  UNL1        0.1527
     13 N          59.2572   92.7539    3.0095 N.ar    1  UNL1       -0.2386
     14 C          59.9775   93.3455    1.8342 C.ar    1  UNL1        0.1132
     15 C          59.2806   91.3073    5.1674 C.3     1  UNL1        0.4348
     16 F          58.5603   90.7157    6.3427 F       1  UNL1       -0.1644
     17 F          60.5154   90.5408    5.5384 F       1  UNL1       -0.1644
     18 F          58.0458   92.0738    4.7964 F       1  UNL1       -0.1644
     19 C          63.8538   95.1525   -4.4529 C.3     1  UNL1        0.1241
     20 C          62.4230   95.3983   -4.8305 C.ar    1  UNL1       -0.0096
     21 C          61.7078   96.6102   -4.3111 C.ar    1  UNL1       -0.0026
     22 C          60.2771   96.8559   -4.6888 C.ar    1  UNL1        0.0111
     23 C          59.5616   95.8898   -5.5859 C.ar    1  UNL1        0.0577
     24 CL         58.1309   96.1356   -5.9635 Cl      1  UNL1       -0.0822
     25 C          60.2769   94.6779   -6.1053 C.ar    1  UNL1        0.0111
     26 C          61.7075   94.4322   -5.7276 C.ar    1  UNL1       -0.0026
     27 C          64.8153   94.6110   -5.4689 C.ar    1  UNL1        0.0286
     28 C          65.4335   95.5297   -6.4807 C.ar    1  UNL1        0.0987
     29 N          66.3950   94.9882   -7.4968 N.ar    1  UNL1       -0.2227
     30 C          66.7383   93.5280   -7.5009 C.ar    1  UNL1        0.1989
     31 N          66.1201   92.6093   -6.4891 N.ar    1  UNL1       -0.2227
     32 C          65.1586   93.1508   -5.4731 C.ar    1  UNL1        0.0987
@<TRIPOS>BOND
     1     1     2    2
     2     2    19    1
     3    19    20    1
     4    20    21   ar
     5    21    22   ar
     6    22    23   ar
     7    23    24    1
     8    23    25   ar
     9    25    26   ar
    10    19    27    1
    11    27    28   ar
    12    28    29   ar
    13    29    30   ar
    14    30    31   ar
    15    31    32   ar
    16     2     3   am
    17     3     4    1
    18     4     5    1
    19     5     6    1
    20     6     9    1
    21     9    10   ar
    22    10    11   ar
    23    11    12   ar
    24    12    15    1
    25    15    16    1
    26    15    17    1
    27    15    18    1
    28    12    13   ar
    29    13    14   ar
    30     6     7    1
    31     7     8    1
    32    26    20   ar
    33    32    27   ar
    34     8     3    1
    35    14     9   ar
@<TRIPOS>MOLECULE
*****
 32 35 0 0 0
SMALL
GASTEIGER

@<TRIPOS>ATOM
      1 O          64.9459   83.0713   11.2965 O.2     1  UNL1       -0.2742
      2 C          63.7116   83.7289   11.8389 C.2     1  UNL1        0.2336
      3 N          62.9401   84.6936   10.9880 N.am    1  UNL1       -0.2755
      4 C          61.7058   85.3512   11.5304 C.3     1  UNL1        0.1148
      5 C          60.9343   86.3158   10.6795 C.3     1  UNL1        0.1124
      6 N          61.3970   86.6229    9.2861 N.pl3   1  UNL1       -0.3029
      7 C          62.6312   85.9654    8.7436 C.3     1  UNL1        0.1124
      8 C          63.4028   85.0007    9.5946 C.3     1  UNL1        0.1148
      9 C          60.6255   87.5876    8.4351 C.ar    1  UNL1        0.0674
     10 C          60.7347   89.0625    8.6860 C.ar    1  UNL1        0.0176
     11 C          59.9632   90.0271    7.8350 C.ar    1  UNL1        0.0244
     12 C          59.0824   89.5170    6.7332 C.ar    1  UNL1        0.1527
     13 N          58.9732   88.0422    6.4823 N.ar    1  UNL1       -0.2386
     14 C          59.7447   87.0775    7.3333 C.ar    1  UNL1        0.1132
     15 C          58.3109   90.4817    5.8823 C.3     1  UNL1        0.4348
     16 F          57.5393   91.4463    5.0313 F       1  UNL1       -0.1644
     17 F          57.0246   89.9082    6.3984 F       1  UNL1       -0.1644
     18 F          59.5972   91.0551    5.3661 F       1  UNL1       -0.1644
     19 C          63.2489   83.4218   13.2323 C.3     1  UNL1        0.1241
     20 C          63.2585   84.4957   14.2796 C.ar    1  UNL1       -0.0096
     21 C          62.3514   84.3909   15.4697 C.ar    1  UNL1       -0.0026
     22 C          62.3611   85.4648   16.5169 C.ar    1  UNL1        0.0111
     23 C          63.2779   86.6434   16.3741 C.ar    1  UNL1        0.0577
     24 CL         63.2876   87.7173   17.4213 Cl      1  UNL1       -0.0822
     25 C          64.1850   86.7482   15.1840 C.ar    1  UNL1        0.0111
     26 C          64.1753   85.6743   14.1368 C.ar    1  UNL1       -0.0026
     27 C          62.7765   82.0409   13.5785 C.ar    1  UNL1        0.0286
     28 C          63.7729   80.9468   13.8238 C.ar    1  UNL1        0.0987
     29 N          63.3005   79.5658   14.1699 N.ar    1  UNL1       -0.2227
     30 C          61.8317   79.2789   14.2708 C.ar    1  UNL1        0.1989
     31 N          60.8352   80.3730   14.0255 N.ar    1  UNL1       -0.2227
     32 C          61.3076   81.7539   13.6793 C.ar    1  UNL1        0.0987
@<TRIPOS>BOND
     1     1     2    2
     2     2    19    1
     3    19    20    1
     4    20    21   ar
     5    21    22   ar
     6    22    23   ar
     7    23    24    1
     8    23    25   ar
     9    25    26   ar
    10    19    27    1
    11    27    28   ar
    12    28    29   ar
    13    29    30   ar
    14    30    31   ar
    15    31    32   ar
    16     2     3   am
    17     3     4    1
    18     4     5    1
    19     5     6    1
    20     6     9    1
    21     9    10   ar
    22    10    11   ar
    23    11    12   ar
    24    12    15    1
    25    15    16    1
    26    15    17    1
    27    15    18    1
    28    12    13   ar
    29    13    14   ar
    30     6     7    1
    31     7     8    1
    32    26    20   ar
    33    32    27   ar
    34     8     3    1
    35    14     9   ar
@<TRIPOS>MOLECULE
*****
 32 35 0 0 0
SMALL
GASTEIGER

@<TRIPOS>ATOM
      1 O          62.2332   85.6607   12.6370 O.2     1  UNL1       -0.2742
      2 C          62.2693   87.0523   12.0780 C.2     1  UNL1        0.2336
      3 N          63.2125   88.0671   12.6529 N.am    1  UNL1       -0.2755
      4 C          63.2486   89.4587   12.0939 C.3     1  UNL1        0.1148
      5 C          64.1918   90.4736   12.6687 C.3     1  UNL1        0.1124
      6 N          65.0988   90.0970   13.8025 N.pl3   1  UNL1       -0.3029
      7 C          65.0627   88.7055   14.3615 C.3     1  UNL1        0.1124
      8 C          64.1195   87.6905   13.7867 C.3     1  UNL1        0.1148
      9 C          66.0419   91.1118   14.3774 C.ar    1  UNL1        0.0674
     10 C          65.7741   91.7034   15.7296 C.ar    1  UNL1        0.0176
     11 C          66.7172   92.7183   16.3044 C.ar    1  UNL1        0.0244
     12 C          67.9282   93.1416   15.5271 C.ar    1  UNL1        0.1527
     13 N          68.1961   92.5501   14.1750 N.ar    1  UNL1       -0.2386
     14 C          67.2529   91.5352   13.6001 C.ar    1  UNL1        0.1132
     15 C          68.8714   94.1565   16.1020 C.3     1  UNL1        0.4348
     16 F          69.8146   95.1714   16.6768 F       1  UNL1       -0.1644
     17 F          69.6101   93.0647   16.8175 F       1  UNL1       -0.1644
     18 F          68.1326   95.2483   15.3864 F       1  UNL1       -0.1644
     19 C          61.3623   87.4289   10.9442 C.3     1  UNL1        0.1241
     20 C          61.3927   86.6432    9.6667 C.ar    1  UNL1       -0.0096
     21 C          60.1594   86.5418    8.8191 C.ar    1  UNL1       -0.0026
     22 C          60.1898   85.7562    7.5417 C.ar    1  UNL1        0.0111
     23 C          61.4536   85.0720    7.1119 C.ar    1  UNL1        0.0577
     24 CL         61.4840   84.2864    5.8344 Cl      1  UNL1       -0.0822
     25 C          62.6870   85.1735    7.9595 C.ar    1  UNL1        0.0111
     26 C          62.6565   85.9591    9.2369 C.ar    1  UNL1       -0.0026
     27 C          60.4249   88.5910   11.0879 C.ar    1  UNL1        0.0286
     28 C          59.4542   88.6348   12.2306 C.ar    1  UNL1        0.0987
     29 N          58.5168   89.7970   12.3742 N.ar    1  UNL1       -0.2227
     30 C          58.5502   90.9154   11.3751 C.ar    1  UNL1        0.1989
     31 N          59.5209   90.8716   10.2325 N.ar    1  UNL1       -0.2227
     32 C          60.4583   89.7095   10.0888 C.ar    1  UNL1        0.0987
@<TRIPOS>BOND
     1     1     2    2
     2     2    19    1
     3    19    20    1
     4    20    21   ar
     5    21    22   ar
     6    22    23   ar
     7    23    24    1
     8    23    25   ar
     9    25    26   ar
    10    19    27    1
    11    27    28   ar
    12    28    29   ar
    13    29    30   ar
    14    30    31   ar
    15    31    32   ar
    16     2     3   am
    17     3     4    1
    18     4     5    1
    19     5     6    1
    20     6     9    1
    21     9    10   ar
    22    10    11   ar
    23    11    12   ar
    24    12    15    1
    25    15    16    1
    26    15    17    1
    27    15    18    1
    28    12    13   ar
    29    13    14   ar
    30     6     7    1
    31     7     8    1
    32    26    20   ar
    33    32    27   ar
    34     8     3    1
    35    14     9   ar
@<TRIPOS>MOLECULE
*****
 32 35 0 0 0
SMALL
GASTEIGER

@<TRIPOS>ATOM
      1 O          59.4961   88.2292   12.3294 O.2     1  UNL1       -0.2742
      2 C          60.8048   88.3428   11.6051 C.2     1  UNL1        0.2336
      3 N          61.9384   89.1086   12.2202 N.am    1  UNL1       -0.2755
      4 C          63.2471   89.2222   11.4959 C.3     1  UNL1        0.1148
      5 C          64.3807   89.9880   12.1110 C.3     1  UNL1        0.1124
      6 N          64.2058   90.6402   13.4504 N.pl3   1  UNL1       -0.3029
      7 C          62.8972   90.5267   14.1747 C.3     1  UNL1        0.1124
      8 C          61.7635   89.7608   13.5596 C.3     1  UNL1        0.1148
      9 C          65.3394   91.4060   14.0655 C.ar    1  UNL1        0.0674
     10 C          65.3344   91.7012   15.5362 C.ar    1  UNL1        0.0176
     11 C          66.4681   92.4670   16.1513 C.ar    1  UNL1        0.0244
     12 C          67.6067   92.9377   15.2958 C.ar    1  UNL1        0.1527
     13 N          67.6117   92.6426   13.8251 N.ar    1  UNL1       -0.2386
     14 C          66.4780   91.8767   13.2099 C.ar    1  UNL1        0.1132
     15 C          68.7403   93.7035   15.9109 C.3     1  UNL1        0.4348
     16 F          69.8740   94.4693   16.5260 F       1  UNL1       -0.1644
     17 F          69.2257   92.4501   16.5767 F       1  UNL1       -0.1644
     18 F          68.2549   94.9569   15.2450 F       1  UNL1       -0.1644
     19 C          60.9797   87.6905   10.2657 C.3     1  UNL1        0.1241
     20 C          60.3362   88.2892    9.0502 C.ar    1  UNL1       -0.0096
     21 C          59.4120   87.4621    8.2066 C.ar    1  UNL1       -0.0026
     22 C          58.7685   88.0608    6.9911 C.ar    1  UNL1        0.0111
     23 C          59.0491   89.4866    6.6193 C.ar    1  UNL1        0.0577
     24 CL         58.4055   90.0853    5.4037 Cl      1  UNL1       -0.0822
     25 C          59.9732   90.3138    7.4629 C.ar    1  UNL1        0.0111
     26 C          60.6168   89.7151    8.6784 C.ar    1  UNL1       -0.0026
     27 C          61.7982   86.4397   10.1419 C.ar    1  UNL1        0.0286
     28 C          61.9706   85.5357   11.3264 C.ar    1  UNL1        0.0987
     29 N          62.7891   84.2848   11.2025 N.ar    1  UNL1       -0.2227
     30 C          63.4353   83.9379    9.8940 C.ar    1  UNL1        0.1989
     31 N          63.2629   84.8419    8.7095 N.ar    1  UNL1       -0.2227
     32 C          62.4444   86.0927    8.8334 C.ar    1  UNL1        0.0987
@<TRIPOS>BOND
     1     1     2    2
     2     2    19    1
     3    19    20    1
     4    20    21   ar
     5    21    22   ar
     6    22    23   ar
     7    23    24    1
     8    23    25   ar
     9    25    26   ar
    10    19    27    1
    11    27    28   ar
    12    28    29   ar
    13    29    30   ar
    14    30    31   ar
    15    31    32   ar
    16     2     3   am
    17     3     4    1
    18     4     5    1
    19     5     6    1
    20     6     9    1
    21     9    10   ar
    22    10    11   ar
    23    11    12   ar
    24    12    15    1
    25    15    16    1
    26    15    17    1
    27    15    18    1
    28    12    13   ar
    29    13    14   ar
    30     6     7    1
    31     7     8    1
    32    26    20   ar
    33    32    27   ar
    34     8     3    1
    35    14     9   ar
@<TRIPOS>MOLECULE
*****
 32 35 0 0 0
SMALL
GASTEIGER

@<TRIPOS>ATOM
      1 O          61.0576   85.2070   10.8234 O.2     1  UNL1       -0.2742
      2 C          62.0138   85.5872   11.9149 C.2     1  UNL1        0.2336
      3 N          62.6103   86.9631   11.9439 N.am    1  UNL1       -0.2755
      4 C          63.5665   87.3433   13.0354 C.3     1  UNL1        0.1148
      5 C          64.1629   88.7193   13.0643 C.3     1  UNL1        0.1124
      6 N          63.8032   89.7152   12.0019 N.pl3   1  UNL1       -0.3029
      7 C          62.8471   89.3351   10.9105 C.3     1  UNL1        0.1124
      8 C          62.2506   87.9590   10.8814 C.3     1  UNL1        0.1148
      9 C          64.3997   91.0911   12.0309 C.ar    1  UNL1        0.0674
     10 C          64.4571   91.9103   10.7756 C.ar    1  UNL1        0.0176
     11 C          65.0536   93.2863   10.8045 C.ar    1  UNL1        0.0244
     12 C          65.5926   93.8432   12.0888 C.ar    1  UNL1        0.1527
     13 N          65.5352   93.0241   13.3441 N.ar    1  UNL1       -0.2386
     14 C          64.9387   91.6480   13.3151 C.ar    1  UNL1        0.1132
     15 C          66.1890   95.2191   12.1178 C.3     1  UNL1        0.4348
     16 F          66.7855   96.5952   12.1467 F       1  UNL1       -0.1644
     17 F          65.8180   95.4103   10.6771 F       1  UNL1       -0.1644
     18 F          66.5601   95.0280   13.5585 F       1  UNL1       -0.1644
     19 C          62.3735   84.5913   12.9774 C.3     1  UNL1        0.1241
     20 C          62.4927   83.1363   12.6321 C.ar    1  UNL1       -0.0096
     21 C          62.0421   82.0937   13.6118 C.ar    1  UNL1       -0.0026
     22 C          62.1612   80.6389   13.2665 C.ar    1  UNL1        0.0111
     23 C          62.7309   80.2267   11.9416 C.ar    1  UNL1        0.0577
     24 CL         62.8501   78.7718   11.5963 Cl      1  UNL1       -0.0822
     25 C          63.1816   81.2693   10.9619 C.ar    1  UNL1        0.0111
     26 C          63.0624   82.7242   11.3072 C.ar    1  UNL1       -0.0026
     27 C          62.6141   85.0502   14.3850 C.ar    1  UNL1        0.0286
     28 C          64.0114   85.3271   14.8551 C.ar    1  UNL1        0.0987
     29 N          64.2519   85.7861   16.2628 N.ar    1  UNL1       -0.2227
     30 C          63.0952   85.9681   17.2003 C.ar    1  UNL1        0.1989
     31 N          61.6980   85.6912   16.7302 N.ar    1  UNL1       -0.2227
     32 C          61.4574   85.2322   15.3226 C.ar    1  UNL1        0.0987
@<TRIPOS>BOND
     1     1     2    2
     2     2    19    1
     3    19    20    1
     4    20    21   ar
     5    21    22   ar
     6    22    23   ar
     7    23    24    1
     8    23    25   ar
     9    25    26   ar
    10    19    27    1
    11    27    28   ar
    12    28    29   ar
    13    29    30   ar
    14    30    31   ar
    15    31    32   ar
    16     2     3   am
    17     3     4    1
    18     4     5    1
    19     5     6    1
    20     6     9    1
    21     9    10   ar
    22    10    11   ar
    23    11    12   ar
    24    12    15    1
    25    15    16    1
    26    15    17    1
    27    15    18    1
    28    12    13   ar
    29    13    14   ar
    30     6     7    1
    31     7     8    1
    32    26    20   ar
    33    32    27   ar
    34     8     3    1
    35    14     9   ar
@<TRIPOS>MOLECULE
*****
 32 35 0 0 0
SMALL
GASTEIGER

@<TRIPOS>ATOM
      1 O          59.8606   88.1412   10.9608 O.2     1  UNL1       -0.2742
      2 C          61.2365   87.6366   11.2809 C.2     1  UNL1        0.2336
      3 N          62.2333   88.5433   11.9398 N.am    1  UNL1       -0.2755
      4 C          63.6092   88.0387   12.2600 C.3     1  UNL1        0.1148
      5 C          64.6061   88.9453   12.9189 C.3     1  UNL1        0.1124
      6 N          64.2271   90.3566   13.2577 N.pl3   1  UNL1       -0.3029
      7 C          62.8513   90.8612   12.9376 C.3     1  UNL1        0.1124
      8 C          61.8544   89.9545   12.2786 C.3     1  UNL1        0.1148
      9 C          65.2240   91.2632   13.9166 C.ar    1  UNL1        0.0674
     10 C          65.1250   91.5445   15.3867 C.ar    1  UNL1        0.0176
     11 C          66.1219   92.4511   16.0457 C.ar    1  UNL1        0.0244
     12 C          67.2178   93.0765   15.2345 C.ar    1  UNL1        0.1527
     13 N          67.3168   92.7953   13.7645 N.ar    1  UNL1       -0.2386
     14 C          66.3199   91.8886   13.1055 C.ar    1  UNL1        0.1132
     15 C          68.2146   93.9832   15.8935 C.3     1  UNL1        0.4348
     16 F          69.2115   94.8899   16.5524 F       1  UNL1       -0.1644
     17 F          67.7290   95.1273   15.0538 F       1  UNL1       -0.1644
     18 F          68.7002   92.8390   16.7331 F       1  UNL1       -0.1644
     19 C          61.6154   86.2254   10.9421 C.3     1  UNL1        0.1241
     20 C          61.6525   85.7821    9.5096 C.ar    1  UNL1       -0.0096
     21 C          62.8960   85.1574    8.9497 C.ar    1  UNL1       -0.0026
     22 C          62.9330   84.7142    7.5172 C.ar    1  UNL1        0.0111
     23 C          61.7266   84.8956    6.6445 C.ar    1  UNL1        0.0577
     24 CL         61.7637   84.4523    5.2120 Cl      1  UNL1       -0.0822
     25 C          60.4831   85.5203    7.2044 C.ar    1  UNL1        0.0111
     26 C          60.4461   85.9635    8.6369 C.ar    1  UNL1       -0.0026
     27 C          61.9572   85.2574   12.0358 C.ar    1  UNL1        0.0286
     28 C          61.9075   85.6971   13.4691 C.ar    1  UNL1        0.0987
     29 N          62.2494   84.7291   14.5628 N.ar    1  UNL1       -0.2227
     30 C          62.6408   83.3215   14.2232 C.ar    1  UNL1        0.1989
     31 N          62.6905   82.8818   12.7900 N.ar    1  UNL1       -0.2227
     32 C          62.3487   83.8497   11.6963 C.ar    1  UNL1        0.0987
@<TRIPOS>BOND
     1     1     2    2
     2     2    19    1
     3    19    20    1
     4    20    21   ar
     5    21    22   ar
     6    22    23   ar
     7    23    24    1
     8    23    25   ar
     9    25    26   ar
    10    19    27    1
    11    27    28   ar
    12    28    29   ar
    13    29    30   ar
    14    30    31   ar
    15    31    32   ar
    16     2     3   am
    17     3     4    1
    18     4     5    1
    19     5     6    1
    20     6     9    1
    21     9    10   ar
    22    10    11   ar
    23    11    12   ar
    24    12    15    1
    25    15    16    1
    26    15    17    1
    27    15    18    1
    28    12    13   ar
    29    13    14   ar
    30     6     7    1
    31     7     8    1
    32    26    20   ar
    33    32    27   ar
    34     8     3    1
    35    14     9   ar
@<TRIPOS>MOLECULE
*****
 32 35 0 0 0
SMALL
GASTEIGER

@<TRIPOS>ATOM
      1 O          65.1871   96.0321   -2.0348 O.2     1  UNL1       -0.2742
      2 C          63.9506   95.2105   -2.2493 C.2     1  UNL1        0.2336
      3 N          63.2872   94.5357   -1.0855 N.am    1  UNL1       -0.2755
      4 C          62.0507   93.7140   -1.3000 C.3     1  UNL1        0.1148
      5 C          61.3873   93.0393   -0.1362 C.3     1  UNL1        0.1124
      6 N          61.9604   93.1861    1.2422 N.pl3   1  UNL1       -0.3029
      7 C          63.1969   94.0077    1.4568 C.3     1  UNL1        0.1124
      8 C          63.8603   94.6825    0.2929 C.3     1  UNL1        0.1148
      9 C          61.2971   92.5113    2.4060 C.ar    1  UNL1        0.0674
     10 C          59.8626   92.8094    2.7279 C.ar    1  UNL1        0.0176
     11 C          59.1992   92.1346    3.8917 C.ar    1  UNL1        0.0244
     12 C          59.9702   91.1617    4.7338 C.ar    1  UNL1        0.1527
     13 N          61.4046   90.8636    4.4120 N.ar    1  UNL1       -0.2386
     14 C          62.0681   91.5384    3.2481 C.ar    1  UNL1        0.1132
     15 C          59.3069   90.4869    5.8976 C.3     1  UNL1        0.4348
     16 F          58.6434   89.8121    7.0615 F       1  UNL1       -0.1644
     17 F          58.0202   90.4263    5.1291 F       1  UNL1       -0.1644
     18 F          60.5936   90.5476    6.6662 F       1  UNL1       -0.1644
     19 C          63.3775   95.0637   -3.6277 C.3     1  UNL1        0.1241
     20 C          61.9704   95.5030   -3.9057 C.ar    1  UNL1       -0.0096
     21 C          61.2677   95.0301   -5.1436 C.ar    1  UNL1       -0.0026
     22 C          59.8607   95.4695   -5.4215 C.ar    1  UNL1        0.0111
     23 C          59.1564   96.3818   -4.4615 C.ar    1  UNL1        0.0577
     24 CL         57.7494   96.8212   -4.7394 Cl      1  UNL1       -0.0822
     25 C          59.8592   96.8548   -3.2236 C.ar    1  UNL1        0.0111
     26 C          61.2662   96.4154   -2.9457 C.ar    1  UNL1       -0.0026
     27 C          64.2114   94.4775   -4.7282 C.ar    1  UNL1        0.0286
     28 C          64.1404   93.0082   -5.0217 C.ar    1  UNL1        0.0987
     29 N          64.9744   92.4221   -6.1222 N.ar    1  UNL1       -0.2227
     30 C          65.8793   93.3052   -6.9291 C.ar    1  UNL1        0.1989
     31 N          65.9502   94.7745   -6.6356 N.ar    1  UNL1       -0.2227
     32 C          65.1164   95.3607   -5.5352 C.ar    1  UNL1        0.0987
@<TRIPOS>BOND
     1     1     2    2
     2     2    19    1
     3    19    20    1
     4    20    21   ar
     5    21    22   ar
     6    22    23   ar
     7    23    24    1
     8    23    25   ar
     9    25    26   ar
    10    19    27    1
    11    27    28   ar
    12    28    29   ar
    13    29    30   ar
    14    30    31   ar
    15    31    32   ar
    16     2     3   am
    17     3     4    1
    18     4     5    1
    19     5     6    1
    20     6     9    1
    21     9    10   ar
    22    10    11   ar
    23    11    12   ar
    24    12    15    1
    25    15    16    1
    26    15    17    1
    27    15    18    1
    28    12    13   ar
    29    13    14   ar
    30     6     7    1
    31     7     8    1
    32    26    20   ar
    33    32    27   ar
    34     8     3    1
    35    14     9   ar
