@<TRIPOS>MOLECULE
*****
 38 42 0 0 0
SMALL
GASTEIGER

@<TRIPOS>ATOM
      1 C          64.5313   90.6647   14.8770 C.3     0  UNK0        0.2250
      2 C          65.6122   91.5534   14.3368 C.2     0  UNK0        0.0436
      3 C          66.0448   92.7634   15.1107 C.2     0  UNK0        0.0288
      4 C          65.3965   93.0846   16.4247 C.2     0  UNK0        0.0896
      5 N          64.3156   92.1959   16.9649 N.am    0  UNK0       -0.1770
      6 C          63.8831   90.9859   16.1909 C.2     0  UNK0        0.2627
      7 O          62.8022   90.0971   16.7311 O.2     0  UNK0       -0.2719
      8 C          62.9859   85.0537   12.0963 C.2     0  UNK0       -0.0140
      9 C          62.3816   85.9401   11.0481 C.2     0  UNK0       -0.0043
     10 C          62.4540   87.4313   11.1940 C.2     0  UNK0        0.0243
     11 C          61.8496   88.3178   10.1457 C.3     0  UNK0        0.0350
     12 C          63.1308   88.0359   12.3883 C.2     0  UNK0        0.2277
     13 N          63.3555   89.4607   12.8002 N.2     0  UNK0       -0.0345
     14 C          64.0987   89.4547   14.1032 C.2     0  UNK0        0.3649
     15 N          64.3334   88.0263   14.4964 N.2     0  UNK0       -0.0380
     16 C          63.7352   87.1495   13.4366 C.2     0  UNK0        0.2171
     17 C          63.6628   85.6583   13.2906 C.3     0  UNK0        0.1040
     18 C          62.7687   80.5803   11.6583 C.ar    0  UNK0        0.1387
     19 C          63.2751   81.4213   10.5242 C.ar    0  UNK0        0.0369
     20 C          63.3475   82.9124   10.6702 C.ar    0  UNK0        0.0028
     21 C          62.9135   83.5625   11.9503 C.ar    0  UNK0       -0.0033
     22 C          62.4071   82.7217   13.0845 C.ar    0  UNK0        0.0028
     23 C          62.3347   81.2305   12.9385 C.ar    0  UNK0        0.0369
     24 C          62.7580   78.4652   10.1497 C.3     0  UNK0        0.2525
     25 O          62.6963   79.0892   11.5123 O.3     0  UNK0       -0.4714
     26 N          66.2605   91.2323   13.0229 N.pl3   1  PHE1       -0.3342
     27 H          66.9137   90.4981   12.9627 H       1  PHE1        0.1466
     28 CA         65.9138   92.0297   11.8007 C.3     1  PHE1        0.1029
     29 C          64.4791   92.3333   11.4853 C.3     1  PHE1        0.1568
     30 O          63.7347   91.4901   10.4929 O.3     1  PHE1       -0.3802
     31 H          64.1231   91.6088    9.6120 H       1  PHE1        0.2105
     32 CB         67.0018   92.5235   10.8938 C.3     1  PHE1        0.0484
     33 CG         66.9988   93.9486   10.4258 C.ar    1  PHE1       -0.0204
     34 CD1        67.5820   94.3004    9.0894 C.ar    1  PHE1       -0.0042
     35 CE1        67.5790   95.7256    8.6214 C.ar    1  PHE1       -0.0003
     36 CZ         66.9929   96.7990    9.4899 C.ar    1  PHE1       -0.0000
     37 CE2        66.4098   96.4472   10.8264 C.ar    1  PHE1       -0.0003
     38 CD2        66.4127   95.0220   11.2943 C.ar    1  PHE1       -0.0042
@<TRIPOS>BOND
     1    24    25    1
     2    25    18    1
     3    18    19   ar
     4    19    20   ar
     5    20    21   ar
     6    21     8    1
     7     8     9    2
     8     9    10    1
     9    10    11    1
    10    10    12    2
    11    12    13    1
    12    13    14    2
    13    14     1    1
    14     1     2    1
    15     2    26    1
    16    26    28    1
    17    28    29    1
    18    29    30    1
    19    28    32    1
    20    32    33    1
    21    33    34   ar
    22    34    35   ar
    23    35    36   ar
    24    36    37   ar
    25    37    38   ar
    26     2     3    2
    27     3     4    1
    28     4     5    2
    29     5     6    1
    30     6     7    2
    31    14    15    1
    32    15    16    2
    33    16    17    1
    34    21    22   ar
    35    22    23   ar
    36    23    18   ar
    37    17     8    1
    38    16    12    1
    39     6     1    1
    40    38    33   ar
    41    26    27    1
    42    30    31    1
@<TRIPOS>MOLECULE
*****
 38 42 0 0 0
SMALL
GASTEIGER

@<TRIPOS>ATOM
      1 C          60.8983   87.8487    9.6366 C.3     0  UNK0        0.2250
      2 C          60.8088   86.4080    9.2289 C.2     0  UNK0        0.0436
      3 C          59.8566   85.9926    8.1468 C.2     0  UNK0        0.0288
      4 C          58.9940   87.0179    7.4725 C.2     0  UNK0        0.0896
      5 N          59.0835   88.4586    7.8802 N.am    0  UNK0       -0.1770
      6 C          60.0357   88.8740    8.9623 C.2     0  UNK0        0.2627
      7 O          60.1252   90.3147    9.3701 O.2     0  UNK0       -0.2719
      8 C          65.0314   90.2990   13.9398 C.2     0  UNK0       -0.0140
      9 C          64.8980   88.9474   14.5762 C.2     0  UNK0       -0.0043
     10 C          64.0067   87.9116   13.9573 C.2     0  UNK0        0.0243
     11 C          63.8733   86.5599   14.5938 C.3     0  UNK0        0.0350
     12 C          63.2488   88.2277   12.7020 C.2     0  UNK0        0.2277
     13 N          62.3021   87.4148   11.8696 N.2     0  UNK0       -0.0345
     14 C          61.8504   88.2642   10.7187 C.2     0  UNK0        0.3649
     15 N          62.5180   89.6020   10.8398 N.2     0  UNK0       -0.0380
     16 C          63.3823   89.5794   12.0656 C.2     0  UNK0        0.2171
     17 C          64.2736   90.6151   12.6845 C.3     0  UNK0        0.1040
     18 C          67.7053   93.4062   15.7962 C.ar    0  UNK0        0.1387
     19 C          68.1317   92.7022   14.5422 C.ar    0  UNK0        0.0369
     20 C          67.2404   91.6665   13.9234 C.ar    0  UNK0        0.0028
     21 C          65.9227   91.3348   14.5586 C.ar    0  UNK0       -0.0033
     22 C          65.4962   92.0387   15.8126 C.ar    0  UNK0        0.0028
     23 C          66.3875   93.0745   16.4315 C.ar    0  UNK0        0.0369
     24 C          70.0480   94.5022   16.0414 C.3     0  UNK0        0.2525
     25 O          68.5966   94.4419   16.4150 O.3     0  UNK0       -0.4714
     26 N          61.6713   85.3827    9.9032 N.pl3   1  PHE1       -0.3342
     27 H          61.4294   85.0464   10.7962 H       1  PHE1        0.1466
     28 CA         62.9025   84.8698    9.2168 C.3     1  PHE1        0.1029
     29 C          63.1913   85.2665    7.7993 C.3     1  PHE1        0.1568
     30 O          62.5324   84.5360    6.6670 O.3     1  PHE1       -0.3802
     31 H          62.8481   83.6191    6.6464 H       1  PHE1        0.2105
     32 CB         63.8448   83.9602    9.9479 C.3     1  PHE1        0.0484
     33 CG         63.3662   83.1857   11.1400 C.ar    1  PHE1       -0.0204
     34 CD1        63.1490   81.7053   11.0349 C.ar    1  PHE1       -0.0042
     35 CE1        62.6703   80.9309   12.2270 C.ar    1  PHE1       -0.0003
     36 CZ         62.4089   81.6369   13.5244 C.ar    1  PHE1       -0.0000
     37 CE2        62.6261   83.1173   13.6295 C.ar    1  PHE1       -0.0003
     38 CD2        63.1048   83.8917   12.4374 C.ar    1  PHE1       -0.0042
@<TRIPOS>BOND
     1    24    25    1
     2    25    18    1
     3    18    19   ar
     4    19    20   ar
     5    20    21   ar
     6    21     8    1
     7     8     9    2
     8     9    10    1
     9    10    11    1
    10    10    12    2
    11    12    13    1
    12    13    14    2
    13    14     1    1
    14     1     2    1
    15     2    26    1
    16    26    28    1
    17    28    29    1
    18    29    30    1
    19    28    32    1
    20    32    33    1
    21    33    34   ar
    22    34    35   ar
    23    35    36   ar
    24    36    37   ar
    25    37    38   ar
    26     2     3    2
    27     3     4    1
    28     4     5    2
    29     5     6    1
    30     6     7    2
    31    14    15    1
    32    15    16    2
    33    16    17    1
    34    21    22   ar
    35    22    23   ar
    36    23    18   ar
    37    17     8    1
    38    16    12    1
    39     6     1    1
    40    38    33   ar
    41    26    27    1
    42    30    31    1
@<TRIPOS>MOLECULE
*****
 38 42 0 0 0
SMALL
GASTEIGER

@<TRIPOS>ATOM
      1 C          62.7938   83.5971   13.7351 C.3     0  UNK0        0.2250
      2 C          62.3821   83.1761   12.3556 C.2     0  UNK0        0.0436
      3 C          62.0448   81.7409   12.0788 C.2     0  UNK0        0.0288
      4 C          62.1193   80.7268   13.1816 C.2     0  UNK0        0.0896
      5 N          62.5310   81.1478   14.5611 N.am    0  UNK0       -0.1770
      6 C          62.8683   82.5830   14.8379 C.2     0  UNK0        0.2627
      7 O          63.2800   83.0041   16.2174 O.2     0  UNK0       -0.2719
      8 C          64.4646   89.8090   14.2083 C.2     0  UNK0       -0.0140
      9 C          64.0039   89.6439   15.6261 C.2     0  UNK0       -0.0043
     10 C          63.4814   88.3184   16.0954 C.2     0  UNK0        0.0243
     11 C          63.0207   88.1533   17.5134 C.3     0  UNK0        0.0350
     12 C          63.4197   87.1581   15.1467 C.2     0  UNK0        0.2277
     13 N          62.9566   85.7422   15.3217 N.2     0  UNK0       -0.0345
     14 C          63.1311   85.0323   14.0119 C.2     0  UNK0        0.3649
     15 N          63.7021   86.0094   13.0275 N.2     0  UNK0       -0.0380
     16 C          63.8805   87.3233   13.7288 C.2     0  UNK0        0.2171
     17 C          64.4029   88.6488   13.2596 C.3     0  UNK0        0.1040
     18 C          66.0321   93.7854   12.8004 C.ar    0  UNK0        0.1387
     19 C          66.3325   93.3106   14.1913 C.ar    0  UNK0        0.0369
     20 C          65.8100   91.9851   14.6605 C.ar    0  UNK0        0.0028
     21 C          64.9871   91.1345   13.7389 C.ar    0  UNK0       -0.0033
     22 C          64.6868   91.6093   12.3482 C.ar    0  UNK0        0.0028
     23 C          65.2092   92.9348   11.8789 C.ar    0  UNK0        0.0369
     24 C          66.5037   95.4638   10.8742 C.3     0  UNK0        0.2525
     25 O          66.5546   95.1108   12.3312 O.3     0  UNK0       -0.4714
     26 N          62.3076   84.1901   11.2528 N.pl3   1  PHE1       -0.3342
     27 H          61.6440   84.9160   11.2955 H       1  PHE1        0.1466
     28 CA         63.2443   84.0981   10.0848 C.3     1  PHE1        0.1029
     29 C          64.3088   83.0417   10.0584 C.3     1  PHE1        0.1568
     30 O          65.2884   82.9357   11.1894 O.3     1  PHE1       -0.3802
     31 H          65.8470   83.7285   11.2087 H       1  PHE1        0.2105
     32 CB         63.1163   85.0626    8.9431 C.3     1  PHE1        0.0484
     33 CG         62.0904   86.1556    8.9960 C.ar    1  PHE1       -0.0204
     34 CD1        60.7854   85.9950    8.2742 C.ar    1  PHE1       -0.0042
     35 CE1        59.7595   87.0880    8.3271 C.ar    1  PHE1       -0.0003
     36 CZ         60.0385   88.3416    9.1020 C.ar    1  PHE1       -0.0000
     37 CE2        61.3435   88.5022    9.8238 C.ar    1  PHE1       -0.0003
     38 CD2        62.3695   87.4092    9.7709 C.ar    1  PHE1       -0.0042
@<TRIPOS>BOND
     1    24    25    1
     2    25    18    1
     3    18    19   ar
     4    19    20   ar
     5    20    21   ar
     6    21     8    1
     7     8     9    2
     8     9    10    1
     9    10    11    1
    10    10    12    2
    11    12    13    1
    12    13    14    2
    13    14     1    1
    14     1     2    1
    15     2    26    1
    16    26    28    1
    17    28    29    1
    18    29    30    1
    19    28    32    1
    20    32    33    1
    21    33    34   ar
    22    34    35   ar
    23    35    36   ar
    24    36    37   ar
    25    37    38   ar
    26     2     3    2
    27     3     4    1
    28     4     5    2
    29     5     6    1
    30     6     7    2
    31    14    15    1
    32    15    16    2
    33    16    17    1
    34    21    22   ar
    35    22    23   ar
    36    23    18   ar
    37    17     8    1
    38    16    12    1
    39     6     1    1
    40    38    33   ar
    41    26    27    1
    42    30    31    1
@<TRIPOS>MOLECULE
*****
 38 42 0 0 0
SMALL
GASTEIGER

@<TRIPOS>ATOM
      1 C          62.9165   83.9409   13.4260 C.3     0  UNK0        0.2250
      2 C          62.3855   83.3388   12.1589 C.2     0  UNK0        0.0436
      3 C          62.0141   81.8861   12.1171 C.2     0  UNK0        0.0288
      4 C          62.1737   81.0355   13.3422 C.2     0  UNK0        0.0896
      5 N          62.7047   81.6376   14.6093 N.am    0  UNK0       -0.1770
      6 C          63.0761   83.0904   14.6511 C.2     0  UNK0        0.2627
      7 O          63.6071   83.6925   15.9182 O.2     0  UNK0       -0.2719
      8 C          65.0109   89.9999   14.1370 C.2     0  UNK0       -0.0140
      9 C          63.9943   90.2905   13.0732 C.2     0  UNK0       -0.0043
     10 C          63.1642   89.1777   12.5049 C.2     0  UNK0        0.0243
     11 C          62.1475   89.4684   11.4410 C.3     0  UNK0        0.0350
     12 C          63.3510   87.7744   13.0005 C.2     0  UNK0        0.2277
     13 N          62.6836   86.4826   12.6318 N.2     0  UNK0       -0.0345
     14 C          63.2878   85.3936   13.4679 C.2     0  UNK0        0.3649
     15 N          64.3287   86.0124   14.3532 N.2     0  UNK0       -0.0380
     16 C          64.3677   87.4838   14.0644 C.2     0  UNK0        0.2171
     17 C          65.1977   88.5965   14.6326 C.3     0  UNK0        0.1040
     18 C          67.5009   93.3381   15.8419 C.ar    0  UNK0        0.1387
     19 C          66.1424   93.0506   16.4092 C.ar    0  UNK0        0.0369
     20 C          65.3124   91.9379   15.8408 C.ar    0  UNK0        0.0028
     21 C          65.8410   91.1126   14.7053 C.ar    0  UNK0       -0.0033
     22 C          67.1994   91.4001   14.1380 C.ar    0  UNK0        0.0028
     23 C          68.0295   92.5128   14.7063 C.ar    0  UNK0        0.0369
     24 C          69.7743   94.5825   16.0240 C.3     0  UNK0        0.2525
     25 O          68.3309   94.4508   16.4102 O.3     0  UNK0       -0.4714
     26 N          62.2258   84.1893   10.9337 N.pl3   1  PHE1       -0.3342
     27 H          61.4009   84.7097   10.7999 H       1  PHE1        0.1466
     28 CA         63.3229   84.2470    9.9125 C.3     1  PHE1        0.1029
     29 C          64.6004   83.4946   10.1408 C.3     1  PHE1        0.1568
     30 O          64.6400   82.0077    9.9468 O.3     1  PHE1       -0.3802
     31 H          64.0785   81.5798   10.6121 H       1  PHE1        0.2105
     32 CB         63.1426   85.0570    8.6630 C.3     1  PHE1        0.0484
     33 CG         61.9043   85.8826    8.4766 C.ar    1  PHE1       -0.0204
     34 CD1        61.7656   87.1973    9.1852 C.ar    1  PHE1       -0.0042
     35 CE1        60.5272   88.0229    8.9988 C.ar    1  PHE1       -0.0003
     36 CZ         59.4274   87.5338    8.1037 C.ar    1  PHE1       -0.0000
     37 CE2        59.5661   86.2191    7.3951 C.ar    1  PHE1       -0.0003
     38 CD2        60.8044   85.3935    7.5815 C.ar    1  PHE1       -0.0042
@<TRIPOS>BOND
     1    24    25    1
     2    25    18    1
     3    18    19   ar
     4    19    20   ar
     5    20    21   ar
     6    21     8    1
     7     8     9    2
     8     9    10    1
     9    10    11    1
    10    10    12    2
    11    12    13    1
    12    13    14    2
    13    14     1    1
    14     1     2    1
    15     2    26    1
    16    26    28    1
    17    28    29    1
    18    29    30    1
    19    28    32    1
    20    32    33    1
    21    33    34   ar
    22    34    35   ar
    23    35    36   ar
    24    36    37   ar
    25    37    38   ar
    26     2     3    2
    27     3     4    1
    28     4     5    2
    29     5     6    1
    30     6     7    2
    31    14    15    1
    32    15    16    2
    33    16    17    1
    34    21    22   ar
    35    22    23   ar
    36    23    18   ar
    37    17     8    1
    38    16    12    1
    39     6     1    1
    40    38    33   ar
    41    26    27    1
    42    30    31    1
@<TRIPOS>MOLECULE
*****
 38 42 0 0 0
SMALL
GASTEIGER

@<TRIPOS>ATOM
      1 C          61.0312   93.7480    1.3532 C.3     0  UNK0        0.2250
      2 C          60.0870   94.1242    0.2501 C.2     0  UNK0        0.0436
      3 C          60.5733   94.9490   -0.9046 C.2     0  UNK0        0.0288
      4 C          62.0037   95.3975   -0.9563 C.2     0  UNK0        0.0896
      5 N          62.9479   95.0213    0.1468 N.am    0  UNK0       -0.1770
      6 C          62.4617   94.1965    1.3015 C.2     0  UNK0        0.2627
      7 O          63.4059   93.8202    2.4046 O.2     0  UNK0       -0.2719
      8 C          59.6582   90.0046    6.4232 C.2     0  UNK0       -0.0140
      9 C          58.2517   90.4464    6.1466 C.2     0  UNK0       -0.0043
     10 C          57.9694   91.3816    5.0082 C.2     0  UNK0        0.0243
     11 C          56.5628   91.8233    4.7316 C.3     0  UNK0        0.0350
     12 C          59.0937   91.8749    4.1465 C.2     0  UNK0        0.2277
     13 N          59.1214   92.7959    2.9628 N.2     0  UNK0       -0.0345
     14 C          60.5451   92.9232    2.5079 C.2     0  UNK0        0.3649
     15 N          61.3972   92.0810    3.4104 N.2     0  UNK0       -0.0380
     16 C          60.5002   91.4331    4.4231 C.2     0  UNK0        0.2171
     17 C          60.7825   90.4980    5.5615 C.3     0  UNK0        0.1040
     18 C          60.5051   87.1992    9.8382 C.ar    0  UNK0        0.1387
     19 C          60.8042   88.6624    9.9778 C.ar    0  UNK0        0.0369
     20 C          60.5219   89.5976    8.8394 C.ar    0  UNK0        0.0028
     21 C          59.9405   89.0694    7.5615 C.ar    0  UNK0       -0.0033
     22 C          59.6414   87.6063    7.4220 C.ar    0  UNK0        0.0028
     23 C          59.9237   86.6711    8.5604 C.ar    0  UNK0        0.0369
     24 C          62.0499   85.4541   10.9864 C.3     0  UNK0        0.2525
     25 O          60.7874   86.2641   10.9766 O.3     0  UNK0       -0.4714
     26 N          58.6566   93.6758    0.3016 N.pl3   1  PHE1       -0.3342
     27 H          58.2101   93.5533    1.1705 H       1  PHE1        0.1466
     28 CA         57.9063   93.4139   -0.9706 C.3     1  PHE1        0.1029
     29 C          56.6058   94.1142   -1.2321 C.3     1  PHE1        0.1568
     30 O          55.3774   93.3177   -1.5584 O.3     1  PHE1       -0.3802
     31 H          55.4973   92.8738   -2.4125 H       1  PHE1        0.2105
     32 CB         58.4564   92.4518   -1.9812 C.3     1  PHE1        0.0484
     33 CG         58.2260   92.6878   -3.4445 C.ar    1  PHE1       -0.0204
     34 CD1        58.8486   93.8734   -4.1202 C.ar    1  PHE1       -0.0042
     35 CE1        58.6181   94.1095   -5.5834 C.ar    1  PHE1       -0.0003
     36 CZ         57.7649   93.1599   -6.3711 C.ar    1  PHE1       -0.0000
     37 CE2        57.1423   91.9743   -5.6954 C.ar    1  PHE1       -0.0003
     38 CD2        57.3728   91.7383   -4.2321 C.ar    1  PHE1       -0.0042
@<TRIPOS>BOND
     1    24    25    1
     2    25    18    1
     3    18    19   ar
     4    19    20   ar
     5    20    21   ar
     6    21     8    1
     7     8     9    2
     8     9    10    1
     9    10    11    1
    10    10    12    2
    11    12    13    1
    12    13    14    2
    13    14     1    1
    14     1     2    1
    15     2    26    1
    16    26    28    1
    17    28    29    1
    18    29    30    1
    19    28    32    1
    20    32    33    1
    21    33    34   ar
    22    34    35   ar
    23    35    36   ar
    24    36    37   ar
    25    37    38   ar
    26     2     3    2
    27     3     4    1
    28     4     5    2
    29     5     6    1
    30     6     7    2
    31    14    15    1
    32    15    16    2
    33    16    17    1
    34    21    22   ar
    35    22    23   ar
    36    23    18   ar
    37    17     8    1
    38    16    12    1
    39     6     1    1
    40    38    33   ar
    41    26    27    1
    42    30    31    1
@<TRIPOS>MOLECULE
*****
 38 42 0 0 0
SMALL
GASTEIGER

@<TRIPOS>ATOM
      1 C          61.3209   86.1024    8.2411 C.3     0  UNK0        0.2250
      2 C          62.2933   84.9840    8.0097 C.2     0  UNK0        0.0436
      3 C          62.0684   84.0150    6.8869 C.2     0  UNK0        0.0288
      4 C          60.8712   84.1644    5.9956 C.2     0  UNK0        0.0896
      5 N          59.8988   85.2828    6.2271 N.am    0  UNK0       -0.1770
      6 C          60.1237   86.2518    7.3498 C.2     0  UNK0        0.2627
      7 O          59.1513   87.3702    7.5813 O.2     0  UNK0       -0.2719
      8 C          63.0223   90.1557   12.9612 C.2     0  UNK0       -0.0140
      9 C          61.5397   90.3262   13.1109 C.2     0  UNK0       -0.0043
     10 C          60.6035   89.5723   12.2135 C.2     0  UNK0        0.0243
     11 C          59.1208   89.7428   12.3633 C.3     0  UNK0        0.0350
     12 C          61.1502   88.6478   11.1663 C.2     0  UNK0        0.2277
     13 N          60.4782   87.7790   10.1449 N.2     0  UNK0       -0.0345
     14 C          61.5456   87.0715    9.3638 C.2     0  UNK0        0.3649
     15 N          62.8774   87.5031    9.9026 N.2     0  UNK0       -0.0380
     16 C          62.6330   88.4774   11.0166 C.2     0  UNK0        0.2171
     17 C          63.5690   89.2313   11.9140 C.3     0  UNK0        0.1040
     18 C          65.8307   92.4175   15.6533 C.ar    0  UNK0        0.1387
     19 C          66.0516   92.4170   14.1696 C.ar    0  UNK0        0.0369
     20 C          65.1154   91.6631   13.2723 C.ar    0  UNK0        0.0028
     21 C          63.9585   90.9097   13.8586 C.ar    0  UNK0       -0.0033
     22 C          63.7376   90.9102   15.3422 C.ar    0  UNK0        0.0028
     23 C          64.6738   91.6641   16.2396 C.ar    0  UNK0        0.0369
     24 C          68.1320   93.5527   16.0598 C.3     0  UNK0        0.2525
     25 O          66.7669   93.1715   16.5506 O.3     0  UNK0       -0.4714
     26 N          63.4905   84.8346    8.9009 N.pl3   1  PHE1       -0.3342
     27 H          64.3281   85.3036    8.6827 H       1  PHE1        0.1466
     28 CA         63.4115   83.9705   10.1245 C.3     1  PHE1        0.1029
     29 C          64.3077   82.7751   10.2577 C.3     1  PHE1        0.1568
     30 O          65.2385   82.6624   11.4285 O.3     1  PHE1       -0.3802
     31 H          65.9081   83.3624   11.3779 H       1  PHE1        0.2105
     32 CB         62.4362   84.3019   11.2149 C.3     1  PHE1        0.0484
     33 CG         62.9064   84.4058   12.6355 C.ar    1  PHE1       -0.0204
     34 CD1        62.6525   83.2801   13.5938 C.ar    1  PHE1       -0.0042
     35 CE1        63.1227   83.3839   15.0144 C.ar    1  PHE1       -0.0003
     36 CZ         63.8467   84.6135   15.4768 C.ar    1  PHE1       -0.0000
     37 CE2        64.1006   85.7392   14.5186 C.ar    1  PHE1       -0.0003
     38 CD2        63.6304   85.6354   13.0980 C.ar    1  PHE1       -0.0042
@<TRIPOS>BOND
     1    24    25    1
     2    25    18    1
     3    18    19   ar
     4    19    20   ar
     5    20    21   ar
     6    21     8    1
     7     8     9    2
     8     9    10    1
     9    10    11    1
    10    10    12    2
    11    12    13    1
    12    13    14    2
    13    14     1    1
    14     1     2    1
    15     2    26    1
    16    26    28    1
    17    28    29    1
    18    29    30    1
    19    28    32    1
    20    32    33    1
    21    33    34   ar
    22    34    35   ar
    23    35    36   ar
    24    36    37   ar
    25    37    38   ar
    26     2     3    2
    27     3     4    1
    28     4     5    2
    29     5     6    1
    30     6     7    2
    31    14    15    1
    32    15    16    2
    33    16    17    1
    34    21    22   ar
    35    22    23   ar
    36    23    18   ar
    37    17     8    1
    38    16    12    1
    39     6     1    1
    40    38    33   ar
    41    26    27    1
    42    30    31    1
@<TRIPOS>MOLECULE
*****
 38 42 0 0 0
SMALL
GASTEIGER

@<TRIPOS>ATOM
      1 C          65.1299   91.5072   13.5621 C.3     0  UNK0        0.2250
      2 C          64.9363   91.9514   12.1425 C.2     0  UNK0        0.0436
      3 C          65.3785   93.3205   11.7181 C.2     0  UNK0        0.0288
      4 C          66.0142   94.2454   12.7133 C.2     0  UNK0        0.0896
      5 N          66.2078   93.8013   14.1329 N.am    0  UNK0       -0.1770
      6 C          65.7656   92.4321   14.5572 C.2     0  UNK0        0.2627
      7 O          65.9592   91.9880   15.9768 O.2     0  UNK0       -0.2719
      8 C          63.3894   85.3992   14.6871 C.2     0  UNK0       -0.0140
      9 C          63.0940   85.9208   16.0620 C.2     0  UNK0       -0.0043
     10 C          63.3291   87.3673   16.3821 C.2     0  UNK0        0.0243
     11 C          63.0336   87.8889   17.7571 C.3     0  UNK0        0.0350
     12 C          63.8597   88.2921   15.3270 C.2     0  UNK0        0.2277
     13 N          64.1889   89.7554   15.3483 N.2     0  UNK0       -0.0345
     14 C          64.6878   90.1381   13.9865 C.2     0  UNK0        0.3649
     15 N          64.6670   88.9114   13.1235 N.2     0  UNK0       -0.0380
     16 C          64.1552   87.7705   13.9520 C.2     0  UNK0        0.2171
     17 C          63.9201   86.3240   13.6321 C.3     0  UNK0        0.1040
     18 C          62.6840   81.0597   13.7272 C.ar    0  UNK0        0.1387
     19 C          61.6841   81.8183   14.5486 C.ar    0  UNK0        0.0369
     20 C          61.9193   83.2648   14.8686 C.ar    0  UNK0        0.0028
     21 C          63.1543   83.9526   14.3671 C.ar    0  UNK0       -0.0033
     22 C          64.1541   83.1941   13.5457 C.ar    0  UNK0        0.0028
     23 C          63.9190   81.7475   13.2257 C.ar    0  UNK0        0.0369
     24 C          62.5794   79.1268   11.9943 C.3     0  UNK0        0.2525
     25 O          62.4488   79.6132   13.4072 O.3     0  UNK0       -0.4714
     26 N          64.3006   91.0265   11.1473 N.pl3   1  PHE1       -0.3342
     27 H          64.8623   90.5226   10.5149 H       1  PHE1        0.1466
     28 CA         62.8092   90.8694   11.1154 C.3     1  PHE1        0.1029
     29 C          62.0155   90.9867   12.3827 C.3     1  PHE1        0.1568
     30 O          61.4425   89.7583   13.0252 O.3     1  PHE1       -0.3802
     31 H          60.7661   89.3754   12.4448 H       1  PHE1        0.2105
     32 CB         62.1116   90.5951    9.8161 C.3     1  PHE1        0.0484
     33 CG         61.5698   89.2259    9.5303 C.ar    1  PHE1       -0.0204
     34 CD1        62.2921   88.0127   10.0365 C.ar    1  PHE1       -0.0042
     35 CE1        61.7503   86.6435    9.7506 C.ar    1  PHE1       -0.0003
     36 CZ         60.4861   86.4875    8.9585 C.ar    1  PHE1       -0.0000
     37 CE2        59.7638   87.7007    8.4523 C.ar    1  PHE1       -0.0003
     38 CD2        60.3056   89.0699    8.7381 C.ar    1  PHE1       -0.0042
@<TRIPOS>BOND
     1    24    25    1
     2    25    18    1
     3    18    19   ar
     4    19    20   ar
     5    20    21   ar
     6    21     8    1
     7     8     9    2
     8     9    10    1
     9    10    11    1
    10    10    12    2
    11    12    13    1
    12    13    14    2
    13    14     1    1
    14     1     2    1
    15     2    26    1
    16    26    28    1
    17    28    29    1
    18    29    30    1
    19    28    32    1
    20    32    33    1
    21    33    34   ar
    22    34    35   ar
    23    35    36   ar
    24    36    37   ar
    25    37    38   ar
    26     2     3    2
    27     3     4    1
    28     4     5    2
    29     5     6    1
    30     6     7    2
    31    14    15    1
    32    15    16    2
    33    16    17    1
    34    21    22   ar
    35    22    23   ar
    36    23    18   ar
    37    17     8    1
    38    16    12    1
    39     6     1    1
    40    38    33   ar
    41    26    27    1
    42    30    31    1
@<TRIPOS>MOLECULE
*****
 38 42 0 0 0
SMALL
GASTEIGER

@<TRIPOS>ATOM
      1 C          61.0180   93.7050    1.3650 C.3     0  UNK0        0.2250
      2 C          60.0663   94.0876    0.2706 C.2     0  UNK0        0.0436
      3 C          60.5486   94.9053   -0.8908 C.2     0  UNK0        0.0288
      4 C          61.9825   95.3405   -0.9578 C.2     0  UNK0        0.0896
      5 N          62.9342   94.9579    0.1367 N.am    0  UNK0       -0.1770
      6 C          62.4519   94.1401    1.2981 C.2     0  UNK0        0.2627
      7 O          63.4036   93.7575    2.3925 O.2     0  UNK0       -0.2719
      8 C          59.6633   89.9992    6.4675 C.2     0  UNK0       -0.0140
      9 C          58.2539   90.4261    6.1829 C.2     0  UNK0       -0.0043
     10 C          57.9667   91.3478    5.0347 C.2     0  UNK0        0.0243
     11 C          56.5571   91.7747    4.7502 C.3     0  UNK0        0.0350
     12 C          59.0890   91.8425    4.1713 C.2     0  UNK0        0.2277
     13 N          59.1120   92.7521    2.9788 N.2     0  UNK0       -0.0345
     14 C          60.5358   92.8873    2.5264 C.2     0  UNK0        0.3649
     15 N          61.3927   92.0613    3.4393 N.2     0  UNK0       -0.0380
     16 C          60.4985   91.4155    4.4559 C.2     0  UNK0        0.2171
     17 C          60.7857   90.4939    5.6040 C.3     0  UNK0        0.1040
     18 C          60.5250   87.2342    9.9117 C.ar    0  UNK0        0.1387
     19 C          59.9651   86.6868    8.6323 C.ar    0  UNK0        0.0369
     20 C          59.6779   87.6084    7.4843 C.ar    0  UNK0        0.0028
     21 C          59.9506   89.0776    7.6156 C.ar    0  UNK0       -0.0033
     22 C          60.5104   89.6250    8.8949 C.ar    0  UNK0        0.0028
     23 C          60.7976   88.7034   10.0431 C.ar    0  UNK0        0.0369
     24 C          61.9398   85.3278   10.9670 C.3     0  UNK0        0.2525
     25 O          60.8122   86.3126   11.0598 O.3     0  UNK0       -0.4714
     26 N          58.6323   93.6525    0.3374 N.pl3   1  PHE1       -0.3342
     27 H          58.2990   93.1762    1.1319 H       1  PHE1        0.1466
     28 CA         57.7063   93.9432   -0.8062 C.3     1  PHE1        0.1029
     29 C          57.3249   92.8493   -1.7591 C.3     1  PHE1        0.1568
     30 O          56.8166   91.5397   -1.2330 O.3     1  PHE1       -0.3802
     31 H          57.5246   91.0906   -0.7452 H       1  PHE1        0.2105
     32 CB         57.1615   95.3277   -0.9969 C.3     1  PHE1        0.0484
     33 CG         56.0167   95.5601   -1.9379 C.ar    1  PHE1       -0.0204
     34 CD1        56.2821   95.8390   -3.3876 C.ar    1  PHE1       -0.0042
     35 CE1        55.1373   96.0715   -4.3285 C.ar    1  PHE1       -0.0003
     36 CZ         53.7270   96.0251   -3.8197 C.ar    1  PHE1       -0.0000
     37 CE2        53.4616   95.7462   -2.3700 C.ar    1  PHE1       -0.0003
     38 CD2        54.6064   95.5137   -1.4291 C.ar    1  PHE1       -0.0042
@<TRIPOS>BOND
     1    24    25    1
     2    25    18    1
     3    18    19   ar
     4    19    20   ar
     5    20    21   ar
     6    21     8    1
     7     8     9    2
     8     9    10    1
     9    10    11    1
    10    10    12    2
    11    12    13    1
    12    13    14    2
    13    14     1    1
    14     1     2    1
    15     2    26    1
    16    26    28    1
    17    28    29    1
    18    29    30    1
    19    28    32    1
    20    32    33    1
    21    33    34   ar
    22    34    35   ar
    23    35    36   ar
    24    36    37   ar
    25    37    38   ar
    26     2     3    2
    27     3     4    1
    28     4     5    2
    29     5     6    1
    30     6     7    2
    31    14    15    1
    32    15    16    2
    33    16    17    1
    34    21    22   ar
    35    22    23   ar
    36    23    18   ar
    37    17     8    1
    38    16    12    1
    39     6     1    1
    40    38    33   ar
    41    26    27    1
    42    30    31    1
