@<TRIPOS>MOLECULE
*****
 26 31 0 0 0
SMALL
GASTEIGER

@<TRIPOS>ATOM
      1 O          62.5869   91.2225   10.9595 O.2     1  UNL1       -0.2749
      2 C          63.3636   90.4951   12.0167 C.2     1  UNL1        0.2247
      3 N          63.2131   89.0106   12.1700 N.am    1  UNL1       -0.2794
      4 C          62.3288   88.1241   11.3442 C.3     1  UNL1        0.0952
      5 C          62.4897   86.7176   11.8398 C.3     1  UNL1        0.0429
      6 C          62.0425   85.3004   11.6358 C.3     1  UNL1        0.0939
      7 N          62.7500   84.4417   12.6420 N.pl3   1  UNL1       -0.2931
      8 C          63.6343   85.3282   13.4678 C.3     1  UNL1        0.0939
      9 C          63.4734   86.7348   12.9721 C.3     1  UNL1        0.0429
     10 C          63.9206   88.1520   13.1761 C.3     1  UNL1        0.0952
     11 C          64.2909   91.2524   12.9205 C.3     1  UNL1        0.0690
     12 C          65.2081   92.2940   12.3517 C.3     1  UNL1        0.0086
     13 C          66.1352   93.0512   13.2555 C.3     1  UNL1        0.0005
     14 C          66.1452   92.7667   14.7283 C.3     1  UNL1        0.0000
     15 C          65.2280   91.7250   15.2971 C.3     1  UNL1        0.0005
     16 C          64.6743   91.8129   12.0576 C.3     1  UNL1        0.0000
     17 C          65.1981   92.5785   10.8789 C.3     1  UNL1        0.0005
     18 C          66.1252   93.3357   11.7828 C.3     1  UNL1        0.0000
     19 C          64.2809   91.5369   11.4478 C.3     1  UNL1        0.0086
     20 C          64.3009   90.9678   14.3933 C.3     1  UNL1        0.0086
     21 C          62.5994   82.9571   12.7953 C.ar    1  UNL1        0.1317
     22 C          62.9914   82.0436   11.6720 C.ar    1  UNL1        0.0343
     23 C          62.8409   80.5591   11.8252 C.ar    1  UNL1        0.0045
     24 C          62.2984   79.9880   13.1019 C.ar    1  UNL1        0.0208
     25 C          61.9064   80.9016   14.2252 C.ar    1  UNL1        0.1003
     26 N          62.0569   82.3862   14.0718 N.ar    1  UNL1       -0.2292
@<TRIPOS>BOND
     1     1     2    2
     2     2     3   am
     3     3     4    1
     4     5     4    1
     5     5     6    1
     6     6     7    1
     7     7    21    1
     8    21    22   ar
     9    22    23   ar
    10    23    24   ar
    11    24    25   ar
    12    25    26   ar
    13     7     8    1
    14     9     8    1
    15     9    10    1
    16     2    11    1
    17    11    12    1
    18    12    13    1
    19    13    14    1
    20    14    15    1
    21    15    16    1
    22    16    17    1
    23    17    18    1
    24    17    19    1
    25    15    20    1
    26    10     3    1
    27    19    11    1
    28     9     5    1
    29    20    11    1
    30    26    21   ar
    31    18    13    1
@<TRIPOS>MOLECULE
*****
 26 31 0 0 0
SMALL
GASTEIGER

@<TRIPOS>ATOM
      1 O          64.0294   91.2994   16.7020 O.2     1  UNL1       -0.2749
      2 C          64.3245   90.6846   15.3660 C.2     1  UNL1        0.2247
      3 N          64.0768   89.2223   15.1421 N.am    1  UNL1       -0.2794
      4 C          63.5399   88.2540   16.1540 C.3     1  UNL1        0.0952
      5 C          63.4538   86.9047   15.5043 C.3     1  UNL1        0.0429
      6 C          63.0688   85.4724   15.7281 C.3     1  UNL1        0.0939
      7 N          63.3146   84.7216   14.4529 N.pl3   1  UNL1       -0.2931
      8 C          63.8515   85.6899   13.4410 C.3     1  UNL1        0.0939
      9 C          63.9376   87.0392   14.0908 C.3     1  UNL1        0.0429
     10 C          64.3226   88.4715   13.8669 C.3     1  UNL1        0.0952
     11 C          64.8673   91.5323   14.2538 C.3     1  UNL1        0.0690
     12 C          65.9789   92.5024   14.5242 C.3     1  UNL1        0.0086
     13 C          66.5217   93.3501   13.4121 C.3     1  UNL1        0.0005
     14 C          65.9527   93.2276   12.0296 C.3     1  UNL1        0.0000
     15 C          64.8411   92.2575   11.7592 C.3     1  UNL1        0.0005
     16 C          65.5776   91.9941   14.9525 C.3     1  UNL1        0.0000
     17 C          66.5478   92.6249   15.9067 C.3     1  UNL1        0.0005
     18 C          67.0906   93.4725   14.7946 C.3     1  UNL1        0.0000
     19 C          65.4362   91.6548   15.6363 C.3     1  UNL1        0.0086
     20 C          64.2984   91.4099   12.8713 C.3     1  UNL1        0.0086
     21 C          63.0669   83.2592   14.2291 C.ar    1  UNL1        0.1317
     22 C          61.7198   82.6720   14.5300 C.ar    1  UNL1        0.0343
     23 C          61.4721   81.2097   14.3061 C.ar    1  UNL1        0.0045
     24 C          62.5715   80.3344   13.7813 C.ar    1  UNL1        0.0208
     25 C          63.9186   80.9216   13.4804 C.ar    1  UNL1        0.1003
     26 N          64.1663   82.3840   13.7043 N.ar    1  UNL1       -0.2292
@<TRIPOS>BOND
     1     1     2    2
     2     2     3   am
     3     3     4    1
     4     5     4    1
     5     5     6    1
     6     6     7    1
     7     7    21    1
     8    21    22   ar
     9    22    23   ar
    10    23    24   ar
    11    24    25   ar
    12    25    26   ar
    13     7     8    1
    14     9     8    1
    15     9    10    1
    16     2    11    1
    17    11    12    1
    18    12    13    1
    19    13    14    1
    20    14    15    1
    21    15    16    1
    22    16    17    1
    23    17    18    1
    24    17    19    1
    25    15    20    1
    26    10     3    1
    27    19    11    1
    28     9     5    1
    29    20    11    1
    30    26    21   ar
    31    18    13    1
@<TRIPOS>MOLECULE
*****
 26 31 0 0 0
SMALL
GASTEIGER

@<TRIPOS>ATOM
      1 O          63.4862   86.2655   13.2704 O.2     1  UNL1       -0.2749
      2 C          62.8968   85.5972   12.0637 C.2     1  UNL1        0.2247
      3 N          62.1996   86.4163   11.0183 N.am    1  UNL1       -0.2794
      4 C          62.0148   87.9047   11.0428 C.3     1  UNL1        0.0952
      5 C          61.2658   88.2992    9.8045 C.3     1  UNL1        0.0429
      6 C          60.6887   89.4628    9.0542 C.3     1  UNL1        0.0939
      7 N          60.0539   88.9374    7.8008 N.pl3   1  UNL1       -0.2931
      8 C          60.2387   87.4491    7.7763 C.3     1  UNL1        0.0939
      9 C          60.9877   87.0546    9.0146 C.3     1  UNL1        0.0429
     10 C          61.5648   85.8910    9.7649 C.3     1  UNL1        0.0952
     11 C          63.0046   84.1097   11.9025 C.3     1  UNL1        0.0690
     12 C          62.6465   83.2038   13.0431 C.3     1  UNL1        0.0086
     13 C          62.7543   81.7165   12.8818 C.3     1  UNL1        0.0005
     14 C          63.2202   81.1350   11.5800 C.3     1  UNL1        0.0000
     15 C          63.5782   82.0409   10.4394 C.3     1  UNL1        0.0005
     16 C          62.6563   83.9726   12.9348 C.3     1  UNL1        0.0000
     17 C          62.1806   83.7853   14.3450 C.3     1  UNL1        0.0005
     18 C          62.2884   82.2979   14.1837 C.3     1  UNL1        0.0000
     19 C          62.5387   84.6912   13.2044 C.3     1  UNL1        0.0086
     20 C          63.4704   83.5283   10.6006 C.3     1  UNL1        0.0086
     21 C          59.3567   89.7566    6.7553 C.ar    1  UNL1        0.1317
     22 C          60.1526   90.6392    5.8401 C.ar    1  UNL1        0.0343
     23 C          59.4555   91.4584    4.7947 C.ar    1  UNL1        0.0045
     24 C          57.9624   91.3951    4.6645 C.ar    1  UNL1        0.0208
     25 C          57.1666   90.5125    5.5797 C.ar    1  UNL1        0.1003
     26 N          57.8638   89.6932    6.6252 N.ar    1  UNL1       -0.2292
@<TRIPOS>BOND
     1     1     2    2
     2     2     3   am
     3     3     4    1
     4     5     4    1
     5     5     6    1
     6     6     7    1
     7     7    21    1
     8    21    22   ar
     9    22    23   ar
    10    23    24   ar
    11    24    25   ar
    12    25    26   ar
    13     7     8    1
    14     9     8    1
    15     9    10    1
    16     2    11    1
    17    11    12    1
    18    12    13    1
    19    13    14    1
    20    14    15    1
    21    15    16    1
    22    16    17    1
    23    17    18    1
    24    17    19    1
    25    15    20    1
    26    10     3    1
    27    19    11    1
    28     9     5    1
    29    20    11    1
    30    26    21   ar
    31    18    13    1
@<TRIPOS>MOLECULE
*****
 26 31 0 0 0
SMALL
GASTEIGER

@<TRIPOS>ATOM
      1 O          63.1369   91.3537   11.5739 O.2     1  UNL1       -0.2749
      2 C          63.8309   90.5411   12.6265 C.2     1  UNL1        0.2247
      3 N          63.6093   89.0593   12.6975 N.am    1  UNL1       -0.2794
      4 C          62.7272   88.2553   11.7890 C.3     1  UNL1        0.0952
      5 C          62.8036   86.8204   12.2193 C.3     1  UNL1        0.0429
      6 C          62.3057   85.4366   11.9239 C.3     1  UNL1        0.0939
      7 N          62.9273   84.4986   12.9158 N.pl3   1  UNL1       -0.2931
      8 C          63.8094   85.3027   13.8243 C.3     1  UNL1        0.0939
      9 C          63.7330   86.7376   13.3939 C.3     1  UNL1        0.0429
     10 C          64.2309   88.1213   13.6894 C.3     1  UNL1        0.0952
     11 C          64.7466   91.2104   13.6083 C.3     1  UNL1        0.0690
     12 C          64.4011   91.2230   15.0679 C.3     1  UNL1        0.0086
     13 C          65.3168   91.8923   16.0495 C.3     1  UNL1        0.0005
     14 C          66.5779   92.5489   15.5715 C.3     1  UNL1        0.0000
     15 C          66.9233   92.5363   14.1119 C.3     1  UNL1        0.0005
     16 C          64.0675   90.9382   14.4272 C.3     1  UNL1        0.0000
     17 C          63.1400   90.5664   15.5458 C.3     1  UNL1        0.0005
     18 C          64.0556   91.2356   16.5274 C.3     1  UNL1        0.0000
     19 C          63.4855   90.5538   14.0862 C.3     1  UNL1        0.0086
     20 C          66.0077   91.8670   13.1303 C.3     1  UNL1        0.0086
     21 C          62.7056   83.0168   12.9867 C.ar    1  UNL1        0.1317
     22 C          63.1493   82.1371   11.8555 C.ar    1  UNL1        0.0343
     23 C          62.9277   80.6553   11.9264 C.ar    1  UNL1        0.0045
     24 C          62.2624   80.0530   13.1284 C.ar    1  UNL1        0.0208
     25 C          61.8188   80.9327   14.2595 C.ar    1  UNL1        0.1003
     26 N          62.0404   82.4146   14.1886 N.ar    1  UNL1       -0.2292
@<TRIPOS>BOND
     1     1     2    2
     2     2     3   am
     3     3     4    1
     4     5     4    1
     5     5     6    1
     6     6     7    1
     7     7    21    1
     8    21    22   ar
     9    22    23   ar
    10    23    24   ar
    11    24    25   ar
    12    25    26   ar
    13     7     8    1
    14     9     8    1
    15     9    10    1
    16     2    11    1
    17    11    12    1
    18    12    13    1
    19    13    14    1
    20    14    15    1
    21    15    16    1
    22    16    17    1
    23    17    18    1
    24    17    19    1
    25    15    20    1
    26    10     3    1
    27    19    11    1
    28     9     5    1
    29    20    11    1
    30    26    21   ar
    31    18    13    1
@<TRIPOS>MOLECULE
*****
 26 31 0 0 0
SMALL
GASTEIGER

@<TRIPOS>ATOM
      1 O          61.6602   86.2097   12.0728 O.2     1  UNL1       -0.2749
      2 C          61.6854   87.1342   10.8918 C.2     1  UNL1        0.2247
      3 N          62.3959   88.4519   10.9858 N.am    1  UNL1       -0.2794
      4 C          63.1218   88.9783   12.1883 C.3     1  UNL1        0.0952
      5 C          63.6797   90.3262   11.8396 C.3     1  UNL1        0.0429
      6 C          64.4732   91.4847   12.3672 C.3     1  UNL1        0.0939
      7 N          64.5825   92.5074   11.2753 N.pl3   1  UNL1       -0.2931
      8 C          63.8566   91.9810   10.0728 C.3     1  UNL1        0.0939
      9 C          63.2986   90.6330   10.4215 C.3     1  UNL1        0.0429
     10 C          62.5051   89.4745    9.8939 C.3     1  UNL1        0.0952
     11 C          61.0001   86.7409    9.6168 C.3     1  UNL1        0.0690
     12 C          61.7092   85.8710    8.6216 C.3     1  UNL1        0.0086
     13 C          61.0238   85.4778    7.3466 C.3     1  UNL1        0.0005
     14 C          59.6294   85.9544    7.0668 C.3     1  UNL1        0.0000
     15 C          58.9202   86.8243    8.0620 C.3     1  UNL1        0.0005
     16 C          61.8892   86.1718    9.3144 C.3     1  UNL1        0.0000
     17 C          63.1036   85.3944    8.9014 C.3     1  UNL1        0.0005
     18 C          62.4183   85.0012    7.6264 C.3     1  UNL1        0.0000
     19 C          62.3945   86.2643    9.8965 C.3     1  UNL1        0.0086
     20 C          59.6056   87.2175    9.3370 C.3     1  UNL1        0.0086
     21 C          65.2930   93.8251   11.3693 C.ar    1  UNL1        0.1317
     22 C          65.4671   94.6725   10.1439 C.ar    1  UNL1        0.0343
     23 C          66.1776   95.9901   10.2379 C.ar    1  UNL1        0.0045
     24 C          66.7140   96.4605   11.5574 C.ar    1  UNL1        0.0208
     25 C          66.5399   95.6132   12.7829 C.ar    1  UNL1        0.1003
     26 N          65.8294   94.2954   12.6888 N.ar    1  UNL1       -0.2292
@<TRIPOS>BOND
     1     1     2    2
     2     2     3   am
     3     3     4    1
     4     5     4    1
     5     5     6    1
     6     6     7    1
     7     7    21    1
     8    21    22   ar
     9    22    23   ar
    10    23    24   ar
    11    24    25   ar
    12    25    26   ar
    13     7     8    1
    14     9     8    1
    15     9    10    1
    16     2    11    1
    17    11    12    1
    18    12    13    1
    19    13    14    1
    20    14    15    1
    21    15    16    1
    22    16    17    1
    23    17    18    1
    24    17    19    1
    25    15    20    1
    26    10     3    1
    27    19    11    1
    28     9     5    1
    29    20    11    1
    30    26    21   ar
    31    18    13    1
@<TRIPOS>MOLECULE
*****
 26 31 0 0 0
SMALL
GASTEIGER

@<TRIPOS>ATOM
      1 O          63.6385   90.9012   16.8443 O.2     1  UNL1       -0.2749
      2 C          64.2047   90.2473   15.6189 C.2     1  UNL1        0.2247
      3 N          63.9475   88.7927   15.3581 N.am    1  UNL1       -0.2794
      4 C          63.1472   87.8691   16.2279 C.3     1  UNL1        0.0952
      5 C          63.1505   86.5119   15.5892 C.3     1  UNL1        0.0429
      6 C          62.6580   85.1023   15.7320 C.3     1  UNL1        0.0939
      7 N          63.1559   84.3159   14.5557 N.pl3   1  UNL1       -0.2931
      8 C          63.9562   85.2394   13.6860 C.3     1  UNL1        0.0939
      9 C          63.9529   86.5967   14.3247 C.3     1  UNL1        0.0429
     10 C          64.4454   88.0063   14.1819 C.3     1  UNL1        0.0952
     11 C          65.0282   91.0480   14.6541 C.3     1  UNL1        0.0690
     12 C          64.5061   91.3301   13.2765 C.3     1  UNL1        0.0086
     13 C          65.3296   92.1308   12.3118 C.3     1  UNL1        0.0005
     14 C          66.6752   92.6495   12.7247 C.3     1  UNL1        0.0000
     15 C          67.1973   92.3673   14.1023 C.3     1  UNL1        0.0005
     16 C          64.2388   90.9480   13.8973 C.3     1  UNL1        0.0000
     17 C          63.1605   90.8115   12.8636 C.3     1  UNL1        0.0005
     18 C          63.9840   91.6122   11.8989 C.3     1  UNL1        0.0000
     19 C          63.6826   90.5294   14.2412 C.3     1  UNL1        0.0086
     20 C          66.3738   91.5666   15.0670 C.3     1  UNL1        0.0086
     21 C          62.8987   82.8612   14.2951 C.ar    1  UNL1        0.1317
     22 C          64.0268   81.9619   13.8847 C.ar    1  UNL1        0.0343
     23 C          63.7696   80.5073   13.6240 C.ar    1  UNL1        0.0045
     24 C          62.3842   79.9520   13.7737 C.ar    1  UNL1        0.0208
     25 C          61.2560   80.8514   14.1841 C.ar    1  UNL1        0.1003
     26 N          61.5133   82.3060   14.4448 N.ar    1  UNL1       -0.2292
@<TRIPOS>BOND
     1     1     2    2
     2     2     3   am
     3     3     4    1
     4     5     4    1
     5     5     6    1
     6     6     7    1
     7     7    21    1
     8    21    22   ar
     9    22    23   ar
    10    23    24   ar
    11    24    25   ar
    12    25    26   ar
    13     7     8    1
    14     9     8    1
    15     9    10    1
    16     2    11    1
    17    11    12    1
    18    12    13    1
    19    13    14    1
    20    14    15    1
    21    15    16    1
    22    16    17    1
    23    17    18    1
    24    17    19    1
    25    15    20    1
    26    10     3    1
    27    19    11    1
    28     9     5    1
    29    20    11    1
    30    26    21   ar
    31    18    13    1
@<TRIPOS>MOLECULE
*****
 26 31 0 0 0
SMALL
GASTEIGER

@<TRIPOS>ATOM
      1 O          60.9968   86.2543   11.5748 O.2     1  UNL1       -0.2749
      2 C          61.3415   87.5866   10.9780 C.2     1  UNL1        0.2247
      3 N          62.3417   88.4758   11.6555 N.am    1  UNL1       -0.2794
      4 C          63.0747   88.1691   12.9277 C.3     1  UNL1        0.0952
      5 C          63.9705   89.3315   13.2383 C.3     1  UNL1        0.0429
      6 C          64.9772   89.8604   14.2165 C.3     1  UNL1        0.0939
      7 N          65.4199   91.2123   13.7408 N.pl3   1  UNL1       -0.2931
      8 C          64.6868   91.5190   12.4686 C.3     1  UNL1        0.0939
      9 C          63.7910   90.3566   12.1580 C.3     1  UNL1        0.0429
     10 C          62.7844   89.8277   11.1798 C.3     1  UNL1        0.0952
     11 C          60.6860   88.0298    9.7036 C.3     1  UNL1        0.0690
     12 C          60.4564   87.0444    8.5963 C.3     1  UNL1        0.0086
     13 C          59.8009   87.4876    7.3220 C.3     1  UNL1        0.0005
     14 C          59.3749   88.9162    7.1551 C.3     1  UNL1        0.0000
     15 C          59.6045   89.9015    8.2625 C.3     1  UNL1        0.0005
     16 C          60.7690   87.0095    9.3062 C.3     1  UNL1        0.0000
     17 C          60.8824   85.6159    8.7632 C.3     1  UNL1        0.0005
     18 C          60.2269   86.0591    7.4889 C.3     1  UNL1        0.0000
     19 C          61.1119   86.6013    9.8705 C.3     1  UNL1        0.0086
     20 C          60.2600   89.4583    9.5367 C.3     1  UNL1        0.0086
     21 C          66.4201   92.1015   14.4184 C.ar    1  UNL1        0.1317
     22 C          67.4609   91.5081   15.3210 C.ar    1  UNL1        0.0343
     23 C          68.4610   92.3972   15.9986 C.ar    1  UNL1        0.0045
     24 C          68.4205   93.8797   15.7735 C.ar    1  UNL1        0.0208
     25 C          67.3797   94.4731   14.8709 C.ar    1  UNL1        0.1003
     26 N          66.3795   93.5839   14.1933 N.ar    1  UNL1       -0.2292
@<TRIPOS>BOND
     1     1     2    2
     2     2     3   am
     3     3     4    1
     4     5     4    1
     5     5     6    1
     6     6     7    1
     7     7    21    1
     8    21    22   ar
     9    22    23   ar
    10    23    24   ar
    11    24    25   ar
    12    25    26   ar
    13     7     8    1
    14     9     8    1
    15     9    10    1
    16     2    11    1
    17    11    12    1
    18    12    13    1
    19    13    14    1
    20    14    15    1
    21    15    16    1
    22    16    17    1
    23    17    18    1
    24    17    19    1
    25    15    20    1
    26    10     3    1
    27    19    11    1
    28     9     5    1
    29    20    11    1
    30    26    21   ar
    31    18    13    1
@<TRIPOS>MOLECULE
*****
 26 31 0 0 0
SMALL
GASTEIGER

@<TRIPOS>ATOM
      1 O          63.8253   86.0157   13.5348 O.2     1  UNL1       -0.2749
      2 C          62.9586   85.3304   12.5204 C.2     1  UNL1        0.2247
      3 N          62.2721   86.1333   11.4556 N.am    1  UNL1       -0.2794
      4 C          62.3576   87.6205   11.2799 C.3     1  UNL1        0.0952
      5 C          61.5180   87.9964   10.0952 C.3     1  UNL1        0.0429
      6 C          61.0519   89.1479    9.2544 C.3     1  UNL1        0.0939
      7 N          60.1593   88.6046    8.1782 N.pl3   1  UNL1       -0.2931
      8 C          60.0737   87.1174    8.3539 C.3     1  UNL1        0.0939
      9 C          60.9134   86.7415    9.5386 C.3     1  UNL1        0.0429
     10 C          61.3795   85.5901   10.3794 C.3     1  UNL1        0.0952
     11 C          62.7783   83.8421   12.5709 C.3     1  UNL1        0.0690
     12 C          63.3133   82.9838   11.4633 C.3     1  UNL1        0.0086
     13 C          63.1330   81.4956   11.5138 C.3     1  UNL1        0.0005
     14 C          62.4177   80.8656   12.6720 C.3     1  UNL1        0.0000
     15 C          61.8826   81.7239   13.7797 C.3     1  UNL1        0.0005
     16 C          63.3068   83.7456   11.6132 C.3     1  UNL1        0.0000
     17 C          64.0287   83.6137   10.3051 C.3     1  UNL1        0.0005
     18 C          63.8484   82.1255   10.3556 C.3     1  UNL1        0.0000
     19 C          63.4936   84.4720   11.4127 C.3     1  UNL1        0.0086
     20 C          62.0629   83.2122   13.7291 C.3     1  UNL1        0.0086
     21 C          59.4728   89.4076    7.1133 C.ar    1  UNL1        0.1317
     22 C          60.2738   90.3051    6.2172 C.ar    1  UNL1        0.0343
     23 C          59.5874   91.1081    5.1524 C.ar    1  UNL1        0.0045
     24 C          58.0998   91.0136    4.9835 C.ar    1  UNL1        0.0208
     25 C          57.2988   90.1161    5.8796 C.ar    1  UNL1        0.1003
     26 N          57.9853   89.3131    6.9445 N.ar    1  UNL1       -0.2292
@<TRIPOS>BOND
     1     1     2    2
     2     2     3   am
     3     3     4    1
     4     5     4    1
     5     5     6    1
     6     6     7    1
     7     7    21    1
     8    21    22   ar
     9    22    23   ar
    10    23    24   ar
    11    24    25   ar
    12    25    26   ar
    13     7     8    1
    14     9     8    1
    15     9    10    1
    16     2    11    1
    17    11    12    1
    18    12    13    1
    19    13    14    1
    20    14    15    1
    21    15    16    1
    22    16    17    1
    23    17    18    1
    24    17    19    1
    25    15    20    1
    26    10     3    1
    27    19    11    1
    28     9     5    1
    29    20    11    1
    30    26    21   ar
    31    18    13    1
@<TRIPOS>MOLECULE
*****
 26 31 0 0 0
SMALL
GASTEIGER

@<TRIPOS>ATOM
      1 O          66.2203   94.5630   11.9311 O.2     1  UNL1       -0.2749
      2 C          65.9089   93.2411   12.5680 C.2     1  UNL1        0.2247
      3 N          64.9460   92.2990   11.9084 N.am    1  UNL1       -0.2794
      4 C          64.2211   92.5401   10.6176 C.3     1  UNL1        0.0952
      5 C          63.3660   91.3405   10.3352 C.3     1  UNL1        0.0429
      6 C          62.3894   90.7480    9.3628 C.3     1  UNL1        0.0939
      7 N          61.9823   89.3995    9.8782 N.pl3   1  UNL1       -0.2931
      8 C          62.7073   89.1584   11.1691 C.3     1  UNL1        0.0939
      9 C          63.5624   90.3580   11.4515 C.3     1  UNL1        0.0429
     10 C          64.5389   90.9504   12.4238 C.3     1  UNL1        0.0952
     11 C          66.5606   92.8613   13.8647 C.3     1  UNL1        0.0690
     12 C          67.9177   92.2224   13.8632 C.3     1  UNL1        0.0086
     13 C          68.5692   91.8427   15.1598 C.3     1  UNL1        0.0005
     14 C          67.8638   92.1019   16.4579 C.3     1  UNL1        0.0000
     15 C          66.5067   92.7408   16.4594 C.3     1  UNL1        0.0005
     16 C          67.4323   92.4817   13.3154 C.3     1  UNL1        0.0000
     17 C          68.6232   91.9632   12.5651 C.3     1  UNL1        0.0005
     18 C          69.2747   91.5835   13.8617 C.3     1  UNL1        0.0000
     19 C          67.2661   92.6021   12.5666 C.3     1  UNL1        0.0086
     20 C          65.8551   93.1206   15.1628 C.3     1  UNL1        0.0086
     21 C          61.0193   88.4573    9.2185 C.ar    1  UNL1        0.1317
     22 C          61.2330   86.9759    9.3170 C.ar    1  UNL1        0.0343
     23 C          60.2701   86.0338    8.6573 C.ar    1  UNL1        0.0045
     24 C          59.0934   86.5731    7.8992 C.ar    1  UNL1        0.0208
     25 C          58.8798   88.0545    7.8008 C.ar    1  UNL1        0.1003
     26 N          59.8428   88.9967    8.4605 N.ar    1  UNL1       -0.2292
@<TRIPOS>BOND
     1     1     2    2
     2     2     3   am
     3     3     4    1
     4     5     4    1
     5     5     6    1
     6     6     7    1
     7     7    21    1
     8    21    22   ar
     9    22    23   ar
    10    23    24   ar
    11    24    25   ar
    12    25    26   ar
    13     7     8    1
    14     9     8    1
    15     9    10    1
    16     2    11    1
    17    11    12    1
    18    12    13    1
    19    13    14    1
    20    14    15    1
    21    15    16    1
    22    16    17    1
    23    17    18    1
    24    17    19    1
    25    15    20    1
    26    10     3    1
    27    19    11    1
    28     9     5    1
    29    20    11    1
    30    26    21   ar
    31    18    13    1
