@<TRIPOS>MOLECULE
*****
 37 41 0 0 0
SMALL
GASTEIGER

@<TRIPOS>ATOM
      1 N          62.3261   89.5150   12.8051 N.am    1  UNL1       -0.2770
      2 C          63.1652   88.3001   12.5411 C.2     1  UNL1        0.2294
      3 O          64.4163   88.0657   13.3346 O.2     1  UNL1       -0.2747
      4 C          62.7531   87.3194   11.4834 C.3     1  UNL1        0.1211
      5 C          62.2573   87.8119   10.1562 C.3     1  UNL1        0.0804
      6 N          61.8453   86.8313    9.0986 N.3     1  UNL1       -0.2969
      7 C          61.9291   85.3581    9.3683 C.3     1  UNL1        0.0714
      8 C          62.4250   84.8655   10.6955 C.3     1  UNL1        0.0490
      9 C          62.8370   85.8462   11.7530 C.3     1  UNL1        0.1224
     10 O          63.2818   86.7029   12.9013 O.3     1  UNL1       -0.3492
     11 C          63.6948   85.7967   14.0230 C.3     1  UNL1        0.1687
     12 C          63.5054   84.3799   13.5680 C.ar    1  UNL1        0.0079
     13 C          63.7471   83.0660   14.2499 C.ar    1  UNL1        0.0299
     14 C          63.4586   81.7825   13.5290 C.ar    1  UNL1        0.1671
     15 F          63.7003   80.4686   14.2108 F       1  UNL1       -0.2018
     16 C          62.9285   81.8132   12.1261 C.ar    1  UNL1        0.1671
     17 F          62.6400   80.5298   11.4052 F       1  UNL1       -0.2018
     18 C          62.6867   83.1272   11.4442 C.ar    1  UNL1        0.0297
     19 C          62.9752   84.4105   12.1651 C.ar    1  UNL1        0.0033
     20 H          62.4295   87.0150    8.2830 H       1  UNL1        0.1233
     21 C          61.0749   89.7493   12.0115 C.3     1  UNL1        0.0758
     22 C          59.6269   89.4558   11.7522 C.3     1  UNL1        0.0215
     23 C          60.3559   90.4487   10.8962 C.3     1  UNL1        0.0215
     24 C          62.7381   90.4957   13.8627 C.3     1  UNL1        0.1197
     25 C          65.7918   92.4143   12.2063 C.ar    1  UNL1       -0.0227
     26 C          66.5804   92.7965   13.4237 C.ar    1  UNL1       -0.0089
     27 C          66.0882   92.4118   14.7875 C.ar    1  UNL1       -0.0263
     28 C          66.8768   92.7940   16.0048 C.3     1  UNL1        0.0307
     29 C          64.8074   91.6449   14.9338 C.ar    1  UNL1       -0.0282
     30 C          64.3152   91.2602   16.2975 C.3     1  UNL1        0.0304
     31 C          64.0188   91.2626   13.7164 C.ar    1  UNL1       -0.0069
     32 C          64.5111   91.6473   12.3527 C.ar    1  UNL1       -0.0072
     33 C          66.2840   92.7990   10.8426 C.3     1  UNL1        0.0289
     34 C          67.5811   92.2468   10.3300 C.3     1  UNL1        0.0367
     35 C          68.3546   92.9958    9.2856 C.3     1  UNL1        0.1426
     36 C          67.5732   95.3847    8.6281 C.3     1  UNL1        0.1741
     37 O          68.5033   94.4850    9.3865 O.3     1  UNL1       -0.3511
@<TRIPOS>BOND
     1    36    37    1
     2    37    35    1
     3    35    34    1
     4    34    33    1
     5    33    25    1
     6    25    26   ar
     7    26    27   ar
     8    27    28    1
     9    27    29   ar
    10    29    30    1
    11    29    31   ar
    12    31    24    1
    13    24     1    1
    14     1     2   am
    15     2     3    2
    16     4     2    1
    17     4     5    1
    18     5     6    1
    19     6     7    1
    20     7     8    1
    21     9     8    1
    22     9    10    1
    23    10    11    1
    24    11    12    1
    25    12    13   ar
    26    13    14   ar
    27    14    15    1
    28    14    16   ar
    29    16    17    1
    30    16    18   ar
    31    18    19   ar
    32     1    21    1
    33    21    22    1
    34    22    23    1
    35    31    32   ar
    36    32    25   ar
    37     9     4    1
    38    19    12   ar
    39    23    21    1
    40    19     9    1
    41     6    20    1
@<TRIPOS>MOLECULE
*****
 37 41 0 0 0
SMALL
GASTEIGER

@<TRIPOS>ATOM
      1 N          61.7266   88.5470   11.3605 N.am    1  UNL1       -0.2770
      2 C          62.7455   87.4653   11.5648 C.2     1  UNL1        0.2294
      3 O          63.7009   87.5432   12.7185 O.2     1  UNL1       -0.2747
      4 C          62.8090   86.3057   10.6154 C.3     1  UNL1        0.1211
      5 C          62.8947   86.5499    9.1379 C.3     1  UNL1        0.0804
      6 N          62.9581   85.3903    8.1886 N.3     1  UNL1       -0.2969
      7 C          62.9359   83.9865    8.7168 C.3     1  UNL1        0.0714
      8 C          62.8502   83.7423   10.1942 C.3     1  UNL1        0.0490
      9 C          62.7867   84.9019   11.1436 C.3     1  UNL1        0.1224
     10 O          62.7171   85.9557   12.2089 O.3     1  UNL1       -0.3492
     11 C          62.6429   85.2662   13.5389 C.3     1  UNL1        0.1687
     12 C          62.6667   83.7862   13.2957 C.ar    1  UNL1        0.0079
     13 C          62.6190   82.6145   14.2309 C.ar    1  UNL1        0.0299
     14 C          62.6601   81.2176   13.6859 C.ar    1  UNL1        0.1671
     15 F          62.6123   80.0459   14.6211 F       1  UNL1       -0.2018
     16 C          62.7489   80.9925   12.2056 C.ar    1  UNL1        0.1671
     17 F          62.7900   79.5956   11.6605 F       1  UNL1       -0.2018
     18 C          62.7967   82.1642   11.2702 C.ar    1  UNL1        0.0297
     19 C          62.7556   83.5611   11.8153 C.ar    1  UNL1        0.0033
     20 H          63.8232   85.4914    7.6577 H       1  UNL1        0.1233
     21 C          60.7711   88.4690   10.2067 C.3     1  UNL1        0.0758
     22 C          59.7424   87.7113    9.4209 C.3     1  UNL1        0.0215
     23 C          60.1451   89.0918    8.9942 C.3     1  UNL1        0.0215
     24 C          61.6631   89.7066   12.3098 C.3     1  UNL1        0.1197
     25 C          64.6615   91.4944   14.1975 C.ar    1  UNL1       -0.0227
     26 C          65.3301   92.2051   13.0583 C.ar    1  UNL1       -0.0089
     27 C          64.7764   92.0830   11.6696 C.ar    1  UNL1       -0.0263
     28 C          65.4450   92.7938   10.5304 C.3     1  UNL1        0.0307
     29 C          63.5540   91.2502   11.4201 C.ar    1  UNL1       -0.0282
     30 C          63.0003   91.1281   10.0314 C.3     1  UNL1        0.0304
     31 C          62.8854   90.5394   12.5593 C.ar    1  UNL1       -0.0069
     32 C          63.4391   90.6615   13.9480 C.ar    1  UNL1       -0.0072
     33 C          65.2152   91.6165   15.5863 C.3     1  UNL1        0.0289
     34 C          66.4306   92.4588   15.8377 C.3     1  UNL1        0.0367
     35 C          67.7996   91.8684   15.6725 C.3     1  UNL1        0.1426
     36 C          68.9899   94.1554   15.9928 C.3     1  UNL1        0.1741
     37 O          69.0102   92.6578   16.0739 O.3     1  UNL1       -0.3511
@<TRIPOS>BOND
     1    36    37    1
     2    37    35    1
     3    35    34    1
     4    34    33    1
     5    33    25    1
     6    25    26   ar
     7    26    27   ar
     8    27    28    1
     9    27    29   ar
    10    29    30    1
    11    29    31   ar
    12    31    24    1
    13    24     1    1
    14     1     2   am
    15     2     3    2
    16     4     2    1
    17     4     5    1
    18     5     6    1
    19     6     7    1
    20     7     8    1
    21     9     8    1
    22     9    10    1
    23    10    11    1
    24    11    12    1
    25    12    13   ar
    26    13    14   ar
    27    14    15    1
    28    14    16   ar
    29    16    17    1
    30    16    18   ar
    31    18    19   ar
    32     1    21    1
    33    21    22    1
    34    22    23    1
    35    31    32   ar
    36    32    25   ar
    37     9     4    1
    38    19    12   ar
    39    23    21    1
    40    19     9    1
    41     6    20    1
@<TRIPOS>MOLECULE
*****
 37 41 0 0 0
SMALL
GASTEIGER

@<TRIPOS>ATOM
      1 N          61.7456   94.9809   -0.7130 N.am    1  UNL1       -0.2770
      2 C          60.4588   95.6332   -1.1235 C.2     1  UNL1        0.2294
      3 O          59.6257   96.3547   -0.1059 O.2     1  UNL1       -0.2747
      4 C          60.0050   95.5641   -2.5516 C.3     1  UNL1        0.1211
      5 C          60.5603   96.5232   -3.5623 C.3     1  UNL1        0.0804
      6 N          60.1065   96.4540   -4.9903 N.3     1  UNL1       -0.2969
      7 C          59.0974   95.4257   -5.4076 C.3     1  UNL1        0.0714
      8 C          58.5420   94.4665   -4.3969 C.3     1  UNL1        0.0490
      9 C          58.9958   94.5357   -2.9689 C.3     1  UNL1        0.1224
     10 O          59.3527   94.4845   -1.5128 O.3     1  UNL1       -0.3492
     11 C          58.5636   93.3765   -0.8807 C.3     1  UNL1        0.1687
     12 C          57.7189   92.7428   -1.9461 C.ar    1  UNL1        0.0079
     13 C          56.7411   91.6061   -1.9079 C.ar    1  UNL1        0.0299
     14 C          56.0303   91.1856   -3.1602 C.ar    1  UNL1        0.1671
     15 F          55.0525   90.0489   -3.1220 F       1  UNL1       -0.2018
     16 C          56.2975   91.9021   -4.4507 C.ar    1  UNL1        0.1671
     17 F          55.5868   91.4817   -5.7029 F       1  UNL1       -0.2018
     18 C          57.2754   93.0389   -4.4890 C.ar    1  UNL1        0.0297
     19 C          57.9861   93.4593   -3.2367 C.ar    1  UNL1        0.0033
     20 H          60.9398   96.2956   -5.5567 H       1  UNL1        0.1233
     21 C          62.5787   94.2594   -1.7307 C.3     1  UNL1        0.0758
     22 C          62.7004   93.2350   -2.8196 C.3     1  UNL1        0.0215
     23 C          63.8998   94.0341   -2.4043 C.3     1  UNL1        0.0215
     24 C          62.1994   95.0500    0.7149 C.3     1  UNL1        0.1197
     25 C          60.2982   92.5857    3.1772 C.ar    1  UNL1       -0.0227
     26 C          61.3908   91.6107    3.5019 C.ar    1  UNL1       -0.0089
     27 C          62.7530   91.7820    2.8976 C.ar    1  UNL1       -0.0263
     28 C          63.8456   90.8069    3.2222 C.3     1  UNL1        0.0307
     29 C          63.0225   92.9285    1.9686 C.ar    1  UNL1       -0.0282
     30 C          64.3847   93.0998    1.3643 C.3     1  UNL1        0.0304
     31 C          61.9299   93.9036    1.6439 C.ar    1  UNL1       -0.0069
     32 C          60.5678   93.7322    2.2482 C.ar    1  UNL1       -0.0072
     33 C          58.9360   92.4144    3.7815 C.3     1  UNL1        0.0289
     34 C          58.7989   92.0111    5.2198 C.3     1  UNL1        0.0367
     35 C          58.5081   90.5828    5.5737 C.3     1  UNL1        0.1426
     36 C          59.3290   88.7979    7.2737 C.3     1  UNL1        0.1741
     37 O          59.6001   89.7060    6.1111 O.3     1  UNL1       -0.3511
@<TRIPOS>BOND
     1    36    37    1
     2    37    35    1
     3    35    34    1
     4    34    33    1
     5    33    25    1
     6    25    26   ar
     7    26    27   ar
     8    27    28    1
     9    27    29   ar
    10    29    30    1
    11    29    31   ar
    12    31    24    1
    13    24     1    1
    14     1     2   am
    15     2     3    2
    16     4     2    1
    17     4     5    1
    18     5     6    1
    19     6     7    1
    20     7     8    1
    21     9     8    1
    22     9    10    1
    23    10    11    1
    24    11    12    1
    25    12    13   ar
    26    13    14   ar
    27    14    15    1
    28    14    16   ar
    29    16    17    1
    30    16    18   ar
    31    18    19   ar
    32     1    21    1
    33    21    22    1
    34    22    23    1
    35    31    32   ar
    36    32    25   ar
    37     9     4    1
    38    19    12   ar
    39    23    21    1
    40    19     9    1
    41     6    20    1
@<TRIPOS>MOLECULE
*****
 37 41 0 0 0
SMALL
GASTEIGER

@<TRIPOS>ATOM
      1 N          61.3984   88.3977   10.9455 N.am    1  UNL1       -0.2770
      2 C          62.4798   87.4011   11.2409 C.2     1  UNL1        0.2294
      3 O          63.3767   87.5970   12.4271 O.2     1  UNL1       -0.2747
      4 C          62.6644   86.2084   10.3500 C.3     1  UNL1        0.1211
      5 C          62.8220   86.3951    8.8700 C.3     1  UNL1        0.0804
      6 N          63.0065   85.2025    7.9792 N.3     1  UNL1       -0.2969
      7 C          63.0334   83.8233    8.5683 C.3     1  UNL1        0.0714
      8 C          62.8758   83.6366   10.0482 C.3     1  UNL1        0.0490
      9 C          62.6913   84.8292   10.9391 C.3     1  UNL1        0.1224
     10 O          62.4999   85.9208   11.9500 O.3     1  UNL1       -0.3492
     11 C          62.3878   85.2845   13.3037 C.3     1  UNL1        0.1687
     12 C          62.5098   83.7996   13.1295 C.ar    1  UNL1        0.0079
     13 C          62.4744   82.6675   14.1127 C.ar    1  UNL1        0.0299
     14 C          62.6266   81.2538   13.6346 C.ar    1  UNL1        0.1671
     15 F          62.5912   80.1216   14.6178 F       1  UNL1       -0.2018
     16 C          62.8142   80.9725   12.1733 C.ar    1  UNL1        0.1671
     17 F          62.9664   79.5589   11.6951 F       1  UNL1       -0.2018
     18 C          62.8496   82.1047   11.1899 C.ar    1  UNL1        0.0297
     19 C          62.6975   83.5183   11.6681 C.ar    1  UNL1        0.0033
     20 H          63.8938   85.3325    7.4932 H       1  UNL1        0.1233
     21 C          60.5015   88.2017    9.7592 C.3     1  UNL1        0.0758
     22 C          59.4431   87.4125    9.0472 C.3     1  UNL1        0.0215
     23 C          60.0066   88.6514    8.4166 C.3     1  UNL1        0.0215
     24 C          61.2139   89.5903   11.8364 C.3     1  UNL1        0.1197
     25 C          63.8850   90.9682   14.4279 C.ar    1  UNL1       -0.0227
     26 C          64.8039   91.7230   13.5137 C.ar    1  UNL1       -0.0089
     27 C          64.5261   91.7669   12.0402 C.ar    1  UNL1       -0.0263
     28 C          65.4450   92.5216   11.1259 C.3     1  UNL1        0.0307
     29 C          63.3294   91.0560   11.4811 C.ar    1  UNL1       -0.0282
     30 C          63.0517   91.0998   10.0077 C.3     1  UNL1        0.0304
     31 C          62.4105   90.3012   12.3955 C.ar    1  UNL1       -0.0069
     32 C          62.6883   90.2573   13.8688 C.ar    1  UNL1       -0.0072
     33 C          64.1628   90.9243   15.9014 C.3     1  UNL1        0.0289
     34 C          63.3975   89.9806   16.7810 C.3     1  UNL1        0.0367
     35 C          63.3500   88.5184   16.4499 C.3     1  UNL1        0.1426
     36 C          62.5890   86.3831   17.7194 C.3     1  UNL1        0.1741
     37 O          62.2533   87.6589   17.0054 O.3     1  UNL1       -0.3511
@<TRIPOS>BOND
     1    36    37    1
     2    37    35    1
     3    35    34    1
     4    34    33    1
     5    33    25    1
     6    25    26   ar
     7    26    27   ar
     8    27    28    1
     9    27    29   ar
    10    29    30    1
    11    29    31   ar
    12    31    24    1
    13    24     1    1
    14     1     2   am
    15     2     3    2
    16     4     2    1
    17     4     5    1
    18     5     6    1
    19     6     7    1
    20     7     8    1
    21     9     8    1
    22     9    10    1
    23    10    11    1
    24    11    12    1
    25    12    13   ar
    26    13    14   ar
    27    14    15    1
    28    14    16   ar
    29    16    17    1
    30    16    18   ar
    31    18    19   ar
    32     1    21    1
    33    21    22    1
    34    22    23    1
    35    31    32   ar
    36    32    25   ar
    37     9     4    1
    38    19    12   ar
    39    23    21    1
    40    19     9    1
    41     6    20    1
@<TRIPOS>MOLECULE
*****
 37 41 0 0 0
SMALL
GASTEIGER

@<TRIPOS>ATOM
      1 N          63.8289   90.0811   14.1022 N.am    1  UNL1       -0.2770
      2 C          63.6310   89.6578   12.6769 C.2     1  UNL1        0.2294
      3 O          63.9070   90.6231   11.5625 O.2     1  UNL1       -0.2747
      4 C          63.1570   88.2690   12.3659 C.3     1  UNL1        0.1211
      5 C          63.6384   87.1105   13.1882 C.3     1  UNL1        0.0804
      6 N          63.1644   85.7218   12.8772 N.3     1  UNL1       -0.2969
      7 C          62.2090   85.4915   11.7440 C.3     1  UNL1        0.0714
      8 C          61.7276   86.6500   10.9217 C.3     1  UNL1        0.0490
      9 C          62.2016   88.0387   11.2327 C.3     1  UNL1        0.1224
     10 O          62.5863   89.4760   11.4239 O.3     1  UNL1       -0.3492
     11 C          61.8734   90.2889   10.3843 C.3     1  UNL1        0.1687
     12 C          61.0481   89.3542    9.5504 C.ar    1  UNL1        0.0079
     13 C          60.1382   89.5897    8.3815 C.ar    1  UNL1        0.0299
     14 C          59.4310   88.4345    7.7368 C.ar    1  UNL1        0.1671
     15 F          58.5211   88.6700    6.5679 F       1  UNL1       -0.2018
     16 C          59.6339   87.0439    8.2612 C.ar    1  UNL1        0.1671
     17 F          58.9267   85.8887    7.6166 F       1  UNL1       -0.2018
     18 C          60.5438   86.8083    9.4302 C.ar    1  UNL1        0.0297
     19 C          61.2510   87.9635   10.0748 C.ar    1  UNL1        0.0033
     20 H          62.7113   85.3696   13.7205 H       1  UNL1        0.1233
     21 C          63.5529   89.1157   15.2166 C.3     1  UNL1        0.0758
     22 C          63.8177   87.8041   15.8945 C.3     1  UNL1        0.0215
     23 C          62.8099   88.7552   16.4688 C.3     1  UNL1        0.0215
     24 C          64.3029   91.4699   14.4132 C.3     1  UNL1        0.1197
     25 C          67.8393   92.0146   12.6965 C.ar    1  UNL1       -0.0227
     26 C          68.6356   92.5474   13.8505 C.ar    1  UNL1       -0.0089
     27 C          67.9877   92.7210   15.1923 C.ar    1  UNL1       -0.0263
     28 C          68.7841   93.2537   16.3464 C.3     1  UNL1        0.0307
     29 C          66.5435   92.3618   15.3798 C.ar    1  UNL1       -0.0282
     30 C          65.8956   92.5354   16.7215 C.3     1  UNL1        0.0304
     31 C          65.7471   91.8290   14.2256 C.ar    1  UNL1       -0.0069
     32 C          66.3950   91.6555   12.8840 C.ar    1  UNL1       -0.0072
     33 C          68.4872   91.8410   11.3547 C.3     1  UNL1        0.0289
     34 C          67.7376   92.2045   10.1073 C.3     1  UNL1        0.0367
     35 C          68.1438   93.4102    9.3127 C.3     1  UNL1        0.1426
     36 C          66.6204   94.9871   10.7065 C.3     1  UNL1        0.1741
     37 O          67.8052   94.7845    9.8092 O.3     1  UNL1       -0.3511
@<TRIPOS>BOND
     1    36    37    1
     2    37    35    1
     3    35    34    1
     4    34    33    1
     5    33    25    1
     6    25    26   ar
     7    26    27   ar
     8    27    28    1
     9    27    29   ar
    10    29    30    1
    11    29    31   ar
    12    31    24    1
    13    24     1    1
    14     1     2   am
    15     2     3    2
    16     4     2    1
    17     4     5    1
    18     5     6    1
    19     6     7    1
    20     7     8    1
    21     9     8    1
    22     9    10    1
    23    10    11    1
    24    11    12    1
    25    12    13   ar
    26    13    14   ar
    27    14    15    1
    28    14    16   ar
    29    16    17    1
    30    16    18   ar
    31    18    19   ar
    32     1    21    1
    33    21    22    1
    34    22    23    1
    35    31    32   ar
    36    32    25   ar
    37     9     4    1
    38    19    12   ar
    39    23    21    1
    40    19     9    1
    41     6    20    1
@<TRIPOS>MOLECULE
*****
 37 41 0 0 0
SMALL
GASTEIGER

@<TRIPOS>ATOM
      1 N          61.4609   88.0528   11.1306 N.am    1  UNL1       -0.2770
      2 C          62.7429   88.6015   11.6833 C.2     1  UNL1        0.2294
      3 O          63.5324   87.8044   12.6789 O.2     1  UNL1       -0.2747
      4 C          63.2353   89.9475   11.2404 C.3     1  UNL1        0.1211
      5 C          62.8767   90.4668    9.8797 C.3     1  UNL1        0.0804
      6 N          63.3691   91.8127    9.4369 N.3     1  UNL1       -0.2969
      7 C          64.2200   92.6392   10.3548 C.3     1  UNL1        0.0714
      8 C          64.5786   92.1199   11.7156 C.3     1  UNL1        0.0490
      9 C          64.0863   90.7740   12.1584 C.3     1  UNL1        0.1224
     10 O          63.6696   89.4540   12.7364 O.3     1  UNL1       -0.3492
     11 C          64.2503   89.3476   14.1153 C.3     1  UNL1        0.1687
     12 C          65.0259   90.6019   14.3896 C.ar    1  UNL1        0.0079
     13 C          65.8114   91.0552   15.5843 C.ar    1  UNL1        0.0299
     14 C          66.4955   92.3901   15.5698 C.ar    1  UNL1        0.1671
     15 F          67.2809   92.8434   16.7645 F       1  UNL1       -0.2018
     16 C          66.3941   93.2716   14.3604 C.ar    1  UNL1        0.1671
     17 F          67.0782   94.6065   14.3458 F       1  UNL1       -0.2018
     18 C          65.6086   92.8183   13.1655 C.ar    1  UNL1        0.0297
     19 C          64.9245   91.4835   13.1801 C.ar    1  UNL1        0.0033
     20 H          62.5438   92.3708    9.2182 H       1  UNL1        0.1233
     21 C          60.6714   88.8500   10.1350 C.3     1  UNL1        0.0758
     22 C          59.8356   90.0501    9.8015 C.3     1  UNL1        0.0215
     23 C          60.1397   89.0306    8.7441 C.3     1  UNL1        0.0215
     24 C          60.9685   86.7069   11.5734 C.3     1  UNL1        0.1197
     25 C          63.1649   83.8296   13.2004 C.ar    1  UNL1       -0.0227
     26 C          63.8549   83.2795   11.9875 C.ar    1  UNL1       -0.0089
     27 C          63.5828   83.8718   10.6365 C.ar    1  UNL1       -0.0263
     28 C          64.2729   83.3217    9.4236 C.3     1  UNL1        0.0307
     29 C          62.6207   85.0143   10.4985 C.ar    1  UNL1       -0.0282
     30 C          62.3486   85.6067    9.1475 C.3     1  UNL1        0.0304
     31 C          61.9307   85.5644   11.7114 C.ar    1  UNL1       -0.0069
     32 C          62.2027   84.9721   13.0624 C.ar    1  UNL1       -0.0072
     33 C          63.4369   83.2372   14.5514 C.3     1  UNL1        0.0289
     34 C          63.1969   84.0503   15.7889 C.3     1  UNL1        0.0367
     35 C          63.9557   85.3256   16.0073 C.3     1  UNL1        0.1426
     36 C          62.5862   86.7542   17.6905 C.3     1  UNL1        0.1741
     37 O          63.2190   86.5889   16.3407 O.3     1  UNL1       -0.3511
@<TRIPOS>BOND
     1    36    37    1
     2    37    35    1
     3    35    34    1
     4    34    33    1
     5    33    25    1
     6    25    26   ar
     7    26    27   ar
     8    27    28    1
     9    27    29   ar
    10    29    30    1
    11    29    31   ar
    12    31    24    1
    13    24     1    1
    14     1     2   am
    15     2     3    2
    16     4     2    1
    17     4     5    1
    18     5     6    1
    19     6     7    1
    20     7     8    1
    21     9     8    1
    22     9    10    1
    23    10    11    1
    24    11    12    1
    25    12    13   ar
    26    13    14   ar
    27    14    15    1
    28    14    16   ar
    29    16    17    1
    30    16    18   ar
    31    18    19   ar
    32     1    21    1
    33    21    22    1
    34    22    23    1
    35    31    32   ar
    36    32    25   ar
    37     9     4    1
    38    19    12   ar
    39    23    21    1
    40    19     9    1
    41     6    20    1
@<TRIPOS>MOLECULE
*****
 37 41 0 0 0
SMALL
GASTEIGER

@<TRIPOS>ATOM
      1 N          62.0768   87.6751   12.0665 N.am    1  UNL1       -0.2770
      2 C          61.8732   89.1327   12.3565 C.2     1  UNL1        0.2294
      3 O          60.9132   89.9350   11.5291 O.2     1  UNL1       -0.2747
      4 C          62.6296   89.7878   13.4739 C.3     1  UNL1        0.1211
      5 C          62.3630   89.3889   14.8951 C.3     1  UNL1        0.0804
      6 N          63.1195   90.0440   16.0125 N.3     1  UNL1       -0.2969
      7 C          64.1425   91.0981   15.7087 C.3     1  UNL1        0.0714
      8 C          64.4091   91.4971   14.2875 C.3     1  UNL1        0.0490
      9 C          63.6526   90.8420   13.1702 C.3     1  UNL1        0.1224
     10 O          62.9782   90.2781   11.9547 O.3     1  UNL1       -0.3492
     11 C          63.5492   90.9625   10.7482 C.3     1  UNL1        0.1687
     12 C          64.5766   91.9494   11.2180 C.ar    1  UNL1        0.0079
     13 C          65.4620   92.9061   10.4762 C.ar    1  UNL1        0.0299
     14 C          66.4116   93.7885   11.2312 C.ar    1  UNL1        0.1671
     15 F          67.2971   94.7453   10.4894 F       1  UNL1       -0.2018
     16 C          66.4755   93.7140   12.7279 C.ar    1  UNL1        0.1671
     17 F          67.4250   94.5963   13.4829 F       1  UNL1       -0.2018
     18 C          65.5899   92.7572   13.4698 C.ar    1  UNL1        0.0297
     19 C          64.6405   91.8749   12.7148 C.ar    1  UNL1        0.0033
     20 H          63.6033   89.3006   16.5161 H       1  UNL1        0.1233
     21 C          63.0368   86.8727   12.8939 C.3     1  UNL1        0.0758
     22 C          64.2340   86.8060   13.7952 C.3     1  UNL1        0.0215
     23 C          63.5024   85.5498   13.4257 C.3     1  UNL1        0.0215
     24 C          61.3204   87.0200   10.9491 C.3     1  UNL1        0.1197
     25 C          63.5888   83.9456    9.8753 C.ar    1  UNL1       -0.0227
     26 C          63.3264   83.9017    8.3991 C.ar    1  UNL1       -0.0089
     27 C          62.3953   84.8971    7.7729 C.ar    1  UNL1       -0.0263
     28 C          62.1330   84.8532    6.2967 C.3     1  UNL1        0.0307
     29 C          61.7267   85.9366    8.6228 C.ar    1  UNL1       -0.0282
     30 C          60.7956   86.9320    7.9966 C.3     1  UNL1        0.0304
     31 C          61.9891   85.9805   10.0991 C.ar    1  UNL1       -0.0069
     32 C          62.9201   84.9851   10.7253 C.ar    1  UNL1       -0.0072
     33 C          64.5199   82.9502   10.5016 C.3     1  UNL1        0.0289
     34 C          64.1508   82.2897   11.7968 C.3     1  UNL1        0.0367
     35 C          62.9214   81.4342   11.8788 C.3     1  UNL1        0.1426
     36 C          61.5531   81.0756   14.0580 C.3     1  UNL1        0.1741
     37 O          62.6408   80.6414   13.1209 O.3     1  UNL1       -0.3511
@<TRIPOS>BOND
     1    36    37    1
     2    37    35    1
     3    35    34    1
     4    34    33    1
     5    33    25    1
     6    25    26   ar
     7    26    27   ar
     8    27    28    1
     9    27    29   ar
    10    29    30    1
    11    29    31   ar
    12    31    24    1
    13    24     1    1
    14     1     2   am
    15     2     3    2
    16     4     2    1
    17     4     5    1
    18     5     6    1
    19     6     7    1
    20     7     8    1
    21     9     8    1
    22     9    10    1
    23    10    11    1
    24    11    12    1
    25    12    13   ar
    26    13    14   ar
    27    14    15    1
    28    14    16   ar
    29    16    17    1
    30    16    18   ar
    31    18    19   ar
    32     1    21    1
    33    21    22    1
    34    22    23    1
    35    31    32   ar
    36    32    25   ar
    37     9     4    1
    38    19    12   ar
    39    23    21    1
    40    19     9    1
    41     6    20    1
@<TRIPOS>MOLECULE
*****
 37 41 0 0 0
SMALL
GASTEIGER

@<TRIPOS>ATOM
      1 N          61.6915   90.3297   11.3009 N.am    1  UNL1       -0.2770
      2 C          62.4324   89.4428   10.3446 C.2     1  UNL1        0.2294
      3 O          63.8273   89.7962    9.9212 O.2     1  UNL1       -0.2747
      4 C          61.7784   88.2025    9.8117 C.3     1  UNL1        0.1211
      5 C          60.8934   88.2813    8.6032 C.3     1  UNL1        0.0804
      6 N          60.2394   87.0410    8.0704 N.3     1  UNL1       -0.2969
      7 C          60.4704   85.7219    8.7461 C.3     1  UNL1        0.0714
      8 C          61.3553   85.6431    9.9546 C.3     1  UNL1        0.0490
      9 C          62.0093   86.8833   10.4874 C.3     1  UNL1        0.1224
     10 O          62.7272   88.0325   11.1311 O.3     1  UNL1       -0.3492
     11 C          63.4934   87.5009   12.3060 C.3     1  UNL1        0.1687
     12 C          63.2491   86.0232   12.3885 C.ar    1  UNL1        0.0079
     13 C          63.7433   84.9759   13.3418 C.ar    1  UNL1        0.0299
     14 C          63.3204   83.5469   13.1713 C.ar    1  UNL1        0.1671
     15 F          63.8146   82.4996   14.1245 F       1  UNL1       -0.2018
     16 C          62.4033   83.1652   12.0473 C.ar    1  UNL1        0.1671
     17 F          61.9804   81.7363   11.8768 F       1  UNL1       -0.2018
     18 C          61.9090   84.2126   11.0940 C.ar    1  UNL1        0.0297
     19 C          62.3319   85.6415   11.2646 C.ar    1  UNL1        0.0033
     20 H          60.5506   86.9357    7.1048 H       1  UNL1        0.1233
     21 C          60.2965   89.9762   11.7243 C.3     1  UNL1        0.0758
     22 C          58.8329   90.3005   11.7751 C.3     1  UNL1        0.0215
     23 C          59.3441   89.0398   12.4069 C.3     1  UNL1        0.0215
     24 C          62.3455   91.5699   11.8338 C.3     1  UNL1        0.1197
     25 C          64.2425   90.7133   15.2128 C.ar    1  UNL1       -0.0227
     26 C          65.6120   91.2462   14.9120 C.ar    1  UNL1       -0.0089
     27 C          65.8927   91.8870   13.5851 C.ar    1  UNL1       -0.0263
     28 C          67.2622   92.4199   13.2843 C.3     1  UNL1        0.0307
     29 C          64.8039   91.9950   12.5590 C.ar    1  UNL1       -0.0282
     30 C          65.0845   92.6357   11.2322 C.3     1  UNL1        0.0304
     31 C          63.4343   91.4620   12.8598 C.ar    1  UNL1       -0.0069
     32 C          63.1537   90.8212   14.1867 C.ar    1  UNL1       -0.0072
     33 C          63.9618   90.0725   16.5397 C.3     1  UNL1        0.0289
     34 C          62.7822   89.1593   16.6969 C.3     1  UNL1        0.0367
     35 C          62.9381   87.8486   17.4094 C.3     1  UNL1        0.1426
     36 C          63.5986   85.4711   16.5963 C.3     1  UNL1        0.1741
     37 O          62.5831   86.5689   16.7119 O.3     1  UNL1       -0.3511
@<TRIPOS>BOND
     1    36    37    1
     2    37    35    1
     3    35    34    1
     4    34    33    1
     5    33    25    1
     6    25    26   ar
     7    26    27   ar
     8    27    28    1
     9    27    29   ar
    10    29    30    1
    11    29    31   ar
    12    31    24    1
    13    24     1    1
    14     1     2   am
    15     2     3    2
    16     4     2    1
    17     4     5    1
    18     5     6    1
    19     6     7    1
    20     7     8    1
    21     9     8    1
    22     9    10    1
    23    10    11    1
    24    11    12    1
    25    12    13   ar
    26    13    14   ar
    27    14    15    1
    28    14    16   ar
    29    16    17    1
    30    16    18   ar
    31    18    19   ar
    32     1    21    1
    33    21    22    1
    34    22    23    1
    35    31    32   ar
    36    32    25   ar
    37     9     4    1
    38    19    12   ar
    39    23    21    1
    40    19     9    1
    41     6    20    1
@<TRIPOS>MOLECULE
*****
 37 41 0 0 0
SMALL
GASTEIGER

@<TRIPOS>ATOM
      1 N          61.5278   88.1499   11.3609 N.am    1  UNL1       -0.2770
      2 C          62.8475   88.6882   11.8284 C.2     1  UNL1        0.2294
      3 O          63.6902   87.8883   12.7771 O.2     1  UNL1       -0.2747
      4 C          63.3245   90.0266   11.3473 C.3     1  UNL1        0.1211
      5 C          62.9444   90.5110    9.9796 C.3     1  UNL1        0.0804
      6 N          63.4214   91.8492    9.4985 N.3     1  UNL1       -0.2969
      7 C          64.2786   92.7031   10.3852 C.3     1  UNL1        0.0714
      8 C          64.6587   92.2187   11.7529 C.3     1  UNL1        0.0490
      9 C          64.1817   90.8804   12.2340 C.3     1  UNL1        0.1224
     10 O          63.7820   89.5717   12.8486 O.3     1  UNL1       -0.3492
     11 C          64.3815   89.5020   14.2218 C.3     1  UNL1        0.1687
     12 C          65.1519   90.7677   14.4560 C.ar    1  UNL1        0.0079
     13 C          65.9498   91.2545   15.6291 C.ar    1  UNL1        0.0299
     14 C          66.6242   92.5933   15.5738 C.ar    1  UNL1        0.1671
     15 F          67.4221   93.0801   16.7469 F       1  UNL1       -0.2018
     16 C          66.5007   93.4451   14.3453 C.ar    1  UNL1        0.1671
     17 F          67.1751   94.7837   14.2900 F       1  UNL1       -0.2018
     18 C          65.7028   92.9583   13.1721 C.ar    1  UNL1        0.0297
     19 C          65.0284   91.6196   13.2274 C.ar    1  UNL1        0.0033
     20 H          62.5894   92.3965    9.2777 H       1  UNL1        0.1233
     21 C          60.6851   88.9500   10.4123 C.3     1  UNL1        0.0758
     22 C          60.1080   89.1540    9.0428 C.3     1  UNL1        0.0215
     23 C          59.8026   90.1316   10.1386 C.3     1  UNL1        0.0215
     24 C          61.0508   86.8117   11.8420 C.3     1  UNL1        0.1197
     25 C          63.1429   83.5748   12.7881 C.ar    1  UNL1       -0.0227
     26 C          63.7083   83.2015   11.4498 C.ar    1  UNL1       -0.0089
     27 C          63.3878   84.0316   10.2422 C.ar    1  UNL1       -0.0263
     28 C          63.9532   83.6583    8.9040 C.3     1  UNL1        0.0307
     29 C          62.5020   85.2350   10.3729 C.ar    1  UNL1       -0.0282
     30 C          62.1815   86.0651    9.1654 C.3     1  UNL1        0.0304
     31 C          61.9366   85.6083   11.7113 C.ar    1  UNL1       -0.0069
     32 C          62.2571   84.7782   12.9188 C.ar    1  UNL1       -0.0072
     33 C          63.4634   82.7446   13.9957 C.3     1  UNL1        0.0289
     34 C          63.4469   81.2476   13.9026 C.3     1  UNL1        0.0367
     35 C          62.1488   80.5228   13.7035 C.3     1  UNL1        0.1426
     36 C          59.6114   80.2995   14.2149 C.3     1  UNL1        0.1741
     37 O          60.8733   81.1102   14.2307 O.3     1  UNL1       -0.3511
@<TRIPOS>BOND
     1    36    37    1
     2    37    35    1
     3    35    34    1
     4    34    33    1
     5    33    25    1
     6    25    26   ar
     7    26    27   ar
     8    27    28    1
     9    27    29   ar
    10    29    30    1
    11    29    31   ar
    12    31    24    1
    13    24     1    1
    14     1     2   am
    15     2     3    2
    16     4     2    1
    17     4     5    1
    18     5     6    1
    19     6     7    1
    20     7     8    1
    21     9     8    1
    22     9    10    1
    23    10    11    1
    24    11    12    1
    25    12    13   ar
    26    13    14   ar
    27    14    15    1
    28    14    16   ar
    29    16    17    1
    30    16    18   ar
    31    18    19   ar
    32     1    21    1
    33    21    22    1
    34    22    23    1
    35    31    32   ar
    36    32    25   ar
    37     9     4    1
    38    19    12   ar
    39    23    21    1
    40    19     9    1
    41     6    20    1
