@<TRIPOS>MOLECULE
*****
 30 33 0 0 0
SMALL
GASTEIGER

@<TRIPOS>ATOM
      1 C          60.4600   86.6935    8.0381 C.3     1  UNL1        0.0795
      2 C          59.7094   87.4951    7.0164 C.3     1  UNL1        0.0178
      3 C          59.3911   88.9370    7.2805 C.3     1  UNL1        0.0029
      4 C          59.8234   89.5772    8.5662 C.3     1  UNL1        0.0178
      5 C          60.5740   88.7756    9.5879 C.3     1  UNL1        0.0799
      6 N          60.8923   87.3338    9.3238 N.3     1  UNL1       -0.1583
      7 C          61.0064   89.4159   10.8737 C.3     1  UNL1        0.0237
      8 C          60.9227   90.0509   12.2301 C.3     1  UNL1        0.0019
      9 C          59.6704   89.6232   11.5236 C.3     1  UNL1        0.0019
     10 C          62.4924   89.4308   10.6703 C.3     1  UNL1        0.0866
     11 C          63.2701   90.6901   10.9140 C.2     1  UNL1        0.2257
     12 O          63.2713   91.7817    9.8851 O.2     1  UNL1       -0.2749
     13 N          64.0465   90.8579   12.1863 N.am    1  UNL1       -0.2795
     14 C          64.0452   89.7663   13.2152 C.3     1  UNL1        0.0934
     15 C          64.8216   89.9341   14.4876 C.3     1  UNL1        0.0216
     16 C          65.5992   91.1933   14.7313 C.3     1  UNL1        0.0035
     17 C          65.6005   92.2850   13.7025 C.3     1  UNL1        0.0216
     18 C          64.8241   92.1173   12.4300 C.3     1  UNL1        0.0934
     19 S          61.6430   86.5321   10.3456 S.O2    1  UNL1        0.0632
     20 O          62.8169   86.4463    9.4158 O.2     1  UNL1       -0.1528
     21 O          60.7813   86.4325   11.3801 O.2     1  UNL1       -0.1528
     22 C          62.3937   85.7305   11.3673 C.ar    1  UNL1        0.1222
     23 C          62.5178   84.2438   11.2109 C.ar    1  UNL1        0.0208
     24 C          63.2684   83.4423   12.2326 C.ar    1  UNL1        0.0128
     25 C          63.8951   84.1273   13.4107 C.ar    1  UNL1        0.0578
     26 CL         64.6457   83.3257   14.4324 Cl      1  UNL1       -0.0822
     27 C          63.7710   85.6139   13.5672 C.ar    1  UNL1        0.0128
     28 C          63.0203   86.4156   12.5455 C.ar    1  UNL1        0.0208
     29 C          61.5461   84.8661    6.5445 C.3     1  UNL1        0.0015
     30 C          60.7783   85.2517    7.7741 C.3     1  UNL1        0.0177
@<TRIPOS>BOND
     1    29    30    1
     2     1    30    1
     3     1     2    1
     4     2     3    1
     5     3     4    1
     6     4     5    1
     7     5     7    1
     8     7    10    1
     9    10    11    1
    10    11    12    2
    11    11    13   am
    12    13    14    1
    13    14    15    1
    14    15    16    1
    15    16    17    1
    16    17    18    1
    17     7     8    1
    18     8     9    1
    19     5     6    1
    20     6    19    1
    21    19    20    2
    22    19    21    2
    23    19    22    1
    24    22    23   ar
    25    23    24   ar
    26    24    25   ar
    27    25    26    1
    28    25    27   ar
    29    27    28   ar
    30     6     1    1
    31    28    22   ar
    32     9     7    1
    33    18    13    1
@<TRIPOS>MOLECULE
*****
 30 33 0 0 0
SMALL
GASTEIGER

@<TRIPOS>ATOM
      1 C          60.6063   86.7399    8.1895 C.3     1  UNL1        0.0795
      2 C          59.8859   87.5616    7.1620 C.3     1  UNL1        0.0178
      3 C          59.5345   88.9899    7.4557 C.3     1  UNL1        0.0029
      4 C          59.9035   89.5966    8.7770 C.3     1  UNL1        0.0178
      5 C          60.6239   88.7749    9.8045 C.3     1  UNL1        0.0799
      6 N          60.9753   87.3465    9.5107 N.3     1  UNL1       -0.1583
      7 C          60.9930   89.3815   11.1258 C.3     1  UNL1        0.0237
      8 C          60.8514   89.9156   12.5203 C.3     1  UNL1        0.0019
      9 C          59.6508   89.3833   11.7956 C.3     1  UNL1        0.0019
     10 C          62.4633   89.5904   10.9148 C.3     1  UNL1        0.0866
     11 C          63.3335   90.0094   12.0625 C.2     1  UNL1        0.2257
     12 O          63.3021   89.2375   13.3483 O.2     1  UNL1       -0.2749
     13 N          64.2352   91.2001   11.9244 N.am    1  UNL1       -0.2795
     14 C          64.2667   91.9719   10.6386 C.3     1  UNL1        0.0934
     15 C          65.1684   93.1627   10.5005 C.3     1  UNL1        0.0216
     16 C          66.0386   93.5816   11.6481 C.3     1  UNL1        0.0035
     17 C          66.0072   92.8098   12.9339 C.3     1  UNL1        0.0216
     18 C          65.1055   91.6190   13.0721 C.3     1  UNL1        0.0934
     19 S          61.6957   86.5248   10.5383 S.O2    1  UNL1        0.0632
     20 O          62.9087   86.4861    9.6569 O.2     1  UNL1       -0.1528
     21 O          60.7932   86.3796   11.5317 O.2     1  UNL1       -0.1528
     22 C          62.4161   85.7031   11.5658 C.ar    1  UNL1        0.1222
     23 C          63.0966   86.3754   12.7212 C.ar    1  UNL1        0.0208
     24 C          63.8170   85.5537   13.7487 C.ar    1  UNL1        0.0128
     25 C          63.8569   84.0597   13.6209 C.ar    1  UNL1        0.0578
     26 CL         64.5773   83.2380   14.6484 Cl      1  UNL1       -0.0822
     27 C          63.1765   83.3874   12.4655 C.ar    1  UNL1        0.0128
     28 C          62.4560   84.2091   11.4380 C.ar    1  UNL1        0.0208
     29 C          61.7768   84.9743    6.6853 C.3     1  UNL1        0.0015
     30 C          60.9576   85.3115    7.8957 C.3     1  UNL1        0.0177
@<TRIPOS>BOND
     1    29    30    1
     2     1    30    1
     3     1     2    1
     4     2     3    1
     5     3     4    1
     6     4     5    1
     7     5     7    1
     8     7    10    1
     9    10    11    1
    10    11    12    2
    11    11    13   am
    12    13    14    1
    13    14    15    1
    14    15    16    1
    15    16    17    1
    16    17    18    1
    17     7     8    1
    18     8     9    1
    19     5     6    1
    20     6    19    1
    21    19    20    2
    22    19    21    2
    23    19    22    1
    24    22    23   ar
    25    23    24   ar
    26    24    25   ar
    27    25    26    1
    28    25    27   ar
    29    27    28   ar
    30     6     1    1
    31    28    22   ar
    32     9     7    1
    33    18    13    1
@<TRIPOS>MOLECULE
*****
 30 33 0 0 0
SMALL
GASTEIGER

@<TRIPOS>ATOM
      1 C          63.0968   85.7044   12.5388 C.3     1  UNL1        0.0795
      2 C          63.9211   85.3123   13.7291 C.3     1  UNL1        0.0178
      3 C          64.4837   86.3690   14.6328 C.3     1  UNL1        0.0029
      4 C          64.2221   87.8179   14.3463 C.3     1  UNL1        0.0178
      5 C          63.3978   88.2101   13.1561 C.3     1  UNL1        0.0799
      6 N          62.8352   87.1533   12.2523 N.3     1  UNL1       -0.1583
      7 C          63.1361   89.6591   12.8695 C.3     1  UNL1        0.0237
      8 C          62.3907   90.9485   12.6915 C.3     1  UNL1        0.0019
      9 C          61.6520   89.7029   13.0827 C.3     1  UNL1        0.0019
     10 C          64.5294   90.1184   12.5568 C.3     1  UNL1        0.0866
     11 C          65.0871   91.3359   13.2327 C.2     1  UNL1        0.2257
     12 O          65.2098   91.3741   14.7272 O.2     1  UNL1       -0.2749
     13 N          65.5222   92.5151   12.4141 N.am    1  UNL1       -0.2795
     14 C          65.3995   92.4769   10.9196 C.3     1  UNL1        0.0934
     15 C          65.8346   93.6562   10.1010 C.3     1  UNL1        0.0216
     16 C          66.3923   94.8735   10.7768 C.3     1  UNL1        0.0035
     17 C          66.5150   94.9118   12.2713 C.3     1  UNL1        0.0216
     18 C          66.0799   93.7325   13.0900 C.3     1  UNL1        0.0934
     19 S          62.0109   87.5456   11.0620 S.O2    1  UNL1        0.0632
     20 O          60.7748   87.0568   11.7571 O.2     1  UNL1       -0.1528
     21 O          62.9109   88.0578   10.1959 O.2     1  UNL1       -0.1528
     22 C          61.1866   87.9378    9.8718 C.ar    1  UNL1        0.1222
     23 C          60.9745   89.3877    9.5513 C.ar    1  UNL1        0.0208
     24 C          60.1502   89.7799    8.3611 C.ar    1  UNL1        0.0128
     25 C          59.5380   88.7222    7.4913 C.ar    1  UNL1        0.0578
     26 CL         58.7137   89.1144    6.3011 Cl      1  UNL1       -0.0822
     27 C          59.7501   87.2723    7.8118 C.ar    1  UNL1        0.0128
     28 C          60.5744   86.8801    9.0020 C.ar    1  UNL1        0.0208
     29 C          63.4533   83.6835   10.9455 C.3     1  UNL1        0.0015
     30 C          62.5342   84.6477   11.6351 C.3     1  UNL1        0.0177
@<TRIPOS>BOND
     1    29    30    1
     2     1    30    1
     3     1     2    1
     4     2     3    1
     5     3     4    1
     6     4     5    1
     7     5     7    1
     8     7    10    1
     9    10    11    1
    10    11    12    2
    11    11    13   am
    12    13    14    1
    13    14    15    1
    14    15    16    1
    15    16    17    1
    16    17    18    1
    17     7     8    1
    18     8     9    1
    19     5     6    1
    20     6    19    1
    21    19    20    2
    22    19    21    2
    23    19    22    1
    24    22    23   ar
    25    23    24   ar
    26    24    25   ar
    27    25    26    1
    28    25    27   ar
    29    27    28   ar
    30     6     1    1
    31    28    22   ar
    32     9     7    1
    33    18    13    1
@<TRIPOS>MOLECULE
*****
 30 33 0 0 0
SMALL
GASTEIGER

@<TRIPOS>ATOM
      1 C          63.1118   85.6912   12.4802 C.3     1  UNL1        0.0795
      2 C          63.9328   85.2838   13.6676 C.3     1  UNL1        0.0178
      3 C          64.4710   86.3274   14.6010 C.3     1  UNL1        0.0029
      4 C          64.1883   87.7784   14.3470 C.3     1  UNL1        0.0178
      5 C          63.3673   88.1858   13.1596 C.3     1  UNL1        0.0799
      6 N          62.8290   87.1422   12.2262 N.3     1  UNL1       -0.1583
      7 C          63.0845   89.6369   12.9055 C.3     1  UNL1        0.0237
      8 C          62.3313   90.8859   12.5554 C.3     1  UNL1        0.0019
      9 C          61.6316   89.5591   12.5407 C.3     1  UNL1        0.0019
     10 C          64.4392   90.2185   13.1822 C.3     1  UNL1        0.0866
     11 C          64.6645   91.0408   14.4164 C.2     1  UNL1        0.2257
     12 O          63.5523   91.2299   15.4050 O.2     1  UNL1       -0.2749
     13 N          66.0019   91.6739   14.6620 N.am    1  UNL1       -0.2795
     14 C          67.1141   91.4847   13.6734 C.3     1  UNL1        0.0934
     15 C          68.4516   92.1179   13.9190 C.3     1  UNL1        0.0216
     16 C          68.6769   92.9401   15.1531 C.3     1  UNL1        0.0035
     17 C          67.5648   93.1293   16.1417 C.3     1  UNL1        0.0216
     18 C          66.2272   92.4961   15.8961 C.3     1  UNL1        0.0934
     19 S          62.0080   87.5497   11.0388 S.O2    1  UNL1        0.0632
     20 O          60.7655   87.0832   11.7379 O.2     1  UNL1       -0.1528
     21 O          62.9142   88.0458   10.1698 O.2     1  UNL1       -0.1528
     22 C          61.1869   87.9571    9.8515 C.ar    1  UNL1        0.1222
     23 C          61.0720   89.4061    9.4806 C.ar    1  UNL1        0.0208
     24 C          60.2510   89.8135    8.2933 C.ar    1  UNL1        0.0128
     25 C          59.5448   88.7721    7.4768 C.ar    1  UNL1        0.0578
     26 CL         58.7237   89.1796    6.2894 Cl      1  UNL1       -0.0822
     27 C          59.6596   87.3232    7.8476 C.ar    1  UNL1        0.0128
     28 C          60.4807   86.9157    9.0350 C.ar    1  UNL1        0.0208
     29 C          63.5163   83.7535   10.7976 C.3     1  UNL1        0.0015
     30 C          62.5735   84.6476   11.5469 C.3     1  UNL1        0.0177
@<TRIPOS>BOND
     1    29    30    1
     2     1    30    1
     3     1     2    1
     4     2     3    1
     5     3     4    1
     6     4     5    1
     7     5     7    1
     8     7    10    1
     9    10    11    1
    10    11    12    2
    11    11    13   am
    12    13    14    1
    13    14    15    1
    14    15    16    1
    15    16    17    1
    16    17    18    1
    17     7     8    1
    18     8     9    1
    19     5     6    1
    20     6    19    1
    21    19    20    2
    22    19    21    2
    23    19    22    1
    24    22    23   ar
    25    23    24   ar
    26    24    25   ar
    27    25    26    1
    28    25    27   ar
    29    27    28   ar
    30     6     1    1
    31    28    22   ar
    32     9     7    1
    33    18    13    1
@<TRIPOS>MOLECULE
*****
 30 33 0 0 0
SMALL
GASTEIGER

@<TRIPOS>ATOM
      1 C          62.9978   85.7074   12.4645 C.3     1  UNL1        0.0795
      2 C          63.8569   85.3439   13.6391 C.3     1  UNL1        0.0178
      3 C          64.4411   86.4219   14.5032 C.3     1  UNL1        0.0029
      4 C          64.1662   87.8634   14.1926 C.3     1  UNL1        0.0178
      5 C          63.3071   88.2269   13.0180 C.3     1  UNL1        0.0799
      6 N          62.7229   87.1489   12.1539 N.3     1  UNL1       -0.1583
      7 C          63.0321   89.6684   12.7074 C.3     1  UNL1        0.0237
      8 C          62.3235   90.9896   12.6591 C.3     1  UNL1        0.0019
      9 C          61.6879   89.8226   13.3550 C.3     1  UNL1        0.0019
     10 C          64.2808   90.0148   11.9520 C.3     1  UNL1        0.0866
     11 C          64.7320   91.4426   11.8634 C.2     1  UNL1        0.2257
     12 O          64.3872   92.2646   10.6570 O.2     1  UNL1       -0.2749
     13 N          65.5281   92.0484   12.9811 N.am    1  UNL1       -0.2795
     14 C          65.8730   91.2264   14.1874 C.3     1  UNL1        0.0934
     15 C          66.6690   91.8322   15.3052 C.3     1  UNL1        0.0216
     16 C          67.1202   93.2599   15.2166 C.3     1  UNL1        0.0035
     17 C          66.7754   94.0820   14.0102 C.3     1  UNL1        0.0216
     18 C          65.9793   93.4762   12.8924 C.3     1  UNL1        0.0934
     19 S          61.8637   87.5124   10.9792 S.O2    1  UNL1        0.0632
     20 O          63.0723   87.4979   10.0909 O.2     1  UNL1       -0.1528
     21 O          60.6213   87.6043   11.4993 O.2     1  UNL1       -0.1528
     22 C          61.0047   87.8759    9.8046 C.ar    1  UNL1        0.1222
     23 C          60.2932   86.8027    9.0351 C.ar    1  UNL1        0.0208
     24 C          59.4341   87.1663    7.8604 C.ar    1  UNL1        0.0128
     25 C          59.2865   88.6029    7.4552 C.ar    1  UNL1        0.0578
     26 CL         58.4275   88.9665    6.2806 Cl      1  UNL1       -0.0822
     27 C          59.9980   89.6761    8.2247 C.ar    1  UNL1        0.0128
     28 C          60.8571   89.3126    9.3994 C.ar    1  UNL1        0.0208
     29 C          62.6854   83.1878   11.9132 C.3     1  UNL1        0.0015
     30 C          62.4136   84.6294   11.6004 C.3     1  UNL1        0.0177
@<TRIPOS>BOND
     1    29    30    1
     2     1    30    1
     3     1     2    1
     4     2     3    1
     5     3     4    1
     6     4     5    1
     7     5     7    1
     8     7    10    1
     9    10    11    1
    10    11    12    2
    11    11    13   am
    12    13    14    1
    13    14    15    1
    14    15    16    1
    15    16    17    1
    16    17    18    1
    17     7     8    1
    18     8     9    1
    19     5     6    1
    20     6    19    1
    21    19    20    2
    22    19    21    2
    23    19    22    1
    24    22    23   ar
    25    23    24   ar
    26    24    25   ar
    27    25    26    1
    28    25    27   ar
    29    27    28   ar
    30     6     1    1
    31    28    22   ar
    32     9     7    1
    33    18    13    1
@<TRIPOS>MOLECULE
*****
 30 33 0 0 0
SMALL
GASTEIGER

@<TRIPOS>ATOM
      1 C          63.9870   95.0318   -0.1102 C.3     1  UNL1        0.0795
      2 C          64.5330   95.8677   -1.2296 C.3     1  UNL1        0.0178
      3 C          63.6058   96.4349   -2.2634 C.3     1  UNL1        0.0029
      4 C          62.1326   96.1661   -2.1778 C.3     1  UNL1        0.0178
      5 C          61.5866   95.3302   -1.0584 C.3     1  UNL1        0.0799
      6 N          62.5137   94.7630   -0.0246 N.3     1  UNL1       -0.1583
      7 C          60.1133   95.0614   -0.9727 C.3     1  UNL1        0.0237
      8 C          58.6597   95.2617   -0.6616 C.3     1  UNL1        0.0019
      9 C          59.6580   96.3190   -0.2937 C.3     1  UNL1        0.0019
     10 C          60.0570   93.7104   -1.6220 C.3     1  UNL1        0.0866
     11 C          59.5747   93.5775   -3.0362 C.2     1  UNL1        0.2257
     12 O          60.3664   94.1807   -4.1584 O.2     1  UNL1       -0.2749
     13 N          58.3008   92.8414   -3.3282 N.am    1  UNL1       -0.2795
     14 C          57.5091   92.2381   -2.2060 C.3     1  UNL1        0.0934
     15 C          56.2352   91.5020   -2.4980 C.3     1  UNL1        0.0216
     16 C          55.7530   91.3691   -3.9121 C.3     1  UNL1        0.0035
     17 C          56.5446   91.9723   -5.0343 C.3     1  UNL1        0.0216
     18 C          57.8186   92.7085   -4.7424 C.3     1  UNL1        0.0934
     19 S          61.9676   93.9271    1.0948 S.O2    1  UNL1        0.0632
     20 O          61.7417   95.1659    1.9097 O.2     1  UNL1       -0.1528
     21 O          62.0461   92.6632    0.6269 O.2     1  UNL1       -0.1528
     22 C          61.4216   93.0912    2.2142 C.ar    1  UNL1        0.1222
     23 C          59.9881   93.2393    2.6305 C.ar    1  UNL1        0.0208
     24 C          59.4420   92.4034    3.7499 C.ar    1  UNL1        0.0128
     25 C          60.3293   91.4194    4.4530 C.ar    1  UNL1        0.0578
     26 CL         59.7833   90.5835    5.5724 Cl      1  UNL1       -0.0822
     27 C          61.7628   91.2713    4.0368 C.ar    1  UNL1        0.0128
     28 C          62.3089   92.1072    2.9173 C.ar    1  UNL1        0.0208
     29 C          65.5392   93.1176    0.7122 C.3     1  UNL1        0.0015
     30 C          64.9141   94.4647    0.9236 C.3     1  UNL1        0.0177
@<TRIPOS>BOND
     1    29    30    1
     2     1    30    1
     3     1     2    1
     4     2     3    1
     5     3     4    1
     6     4     5    1
     7     5     7    1
     8     7    10    1
     9    10    11    1
    10    11    12    2
    11    11    13   am
    12    13    14    1
    13    14    15    1
    14    15    16    1
    15    16    17    1
    16    17    18    1
    17     7     8    1
    18     8     9    1
    19     5     6    1
    20     6    19    1
    21    19    20    2
    22    19    21    2
    23    19    22    1
    24    22    23   ar
    25    23    24   ar
    26    24    25   ar
    27    25    26    1
    28    25    27   ar
    29    27    28   ar
    30     6     1    1
    31    28    22   ar
    32     9     7    1
    33    18    13    1
@<TRIPOS>MOLECULE
*****
 30 33 0 0 0
SMALL
GASTEIGER

@<TRIPOS>ATOM
      1 C          63.5565   84.3957   10.6210 C.3     1  UNL1        0.0795
      2 C          63.5481   84.2323    9.1300 C.3     1  UNL1        0.0178
      3 C          62.8598   85.2489    8.2680 C.3     1  UNL1        0.0029
      4 C          62.1800   86.4287    8.8970 C.3     1  UNL1        0.0178
      5 C          62.1884   86.5921   10.3880 C.3     1  UNL1        0.0799
      6 N          62.8767   85.5756   11.2500 N.3     1  UNL1       -0.1583
      7 C          61.5086   87.7720   11.0172 C.3     1  UNL1        0.0237
      8 C          60.4177   88.7144   11.4318 C.3     1  UNL1        0.0019
      9 C          60.0888   87.4978   10.6182 C.3     1  UNL1        0.0019
     10 C          62.6923   88.4558   11.6346 C.3     1  UNL1        0.0866
     11 C          63.1502   89.7836   11.1080 C.2     1  UNL1        0.2257
     12 O          62.7259   90.2355    9.7420 O.2     1  UNL1       -0.2749
     13 N          64.0324   90.6595   11.9472 N.am    1  UNL1       -0.2795
     14 C          64.4568   90.2076   13.3132 C.3     1  UNL1        0.0934
     15 C          65.3390   91.0836   14.1525 C.3     1  UNL1        0.0216
     16 C          65.7969   92.4113   13.6259 C.3     1  UNL1        0.0035
     17 C          65.3727   92.8632   12.2600 C.3     1  UNL1        0.0216
     18 C          64.4904   91.9873   11.4206 C.3     1  UNL1        0.0934
     19 S          62.8850   85.7390   12.7411 S.O2    1  UNL1        0.0632
     20 O          61.6739   84.8601   12.8442 O.2     1  UNL1       -0.1528
     21 O          63.9445   86.5420   12.9758 O.2     1  UNL1       -0.1528
     22 C          62.8934   85.9023   14.2322 C.ar    1  UNL1        0.1222
     23 C          62.1955   84.8979   15.1007 C.ar    1  UNL1        0.0208
     24 C          62.2038   85.0613   16.5917 C.ar    1  UNL1        0.0128
     25 C          62.9101   86.2290   17.2143 C.ar    1  UNL1        0.0578
     26 CL         62.9184   86.3924   18.7053 Cl      1  UNL1       -0.0822
     27 C          63.6080   87.2334   16.3459 C.ar    1  UNL1        0.0128
     28 C          63.5996   87.0700   14.8548 C.ar    1  UNL1        0.0208
     29 C          63.5951   82.0522   11.7420 C.3     1  UNL1        0.0015
     30 C          64.2447   83.3792   11.4830 C.3     1  UNL1        0.0177
@<TRIPOS>BOND
     1    29    30    1
     2     1    30    1
     3     1     2    1
     4     2     3    1
     5     3     4    1
     6     4     5    1
     7     5     7    1
     8     7    10    1
     9    10    11    1
    10    11    12    2
    11    11    13   am
    12    13    14    1
    13    14    15    1
    14    15    16    1
    15    16    17    1
    16    17    18    1
    17     7     8    1
    18     8     9    1
    19     5     6    1
    20     6    19    1
    21    19    20    2
    22    19    21    2
    23    19    22    1
    24    22    23   ar
    25    23    24   ar
    26    24    25   ar
    27    25    26    1
    28    25    27   ar
    29    27    28   ar
    30     6     1    1
    31    28    22   ar
    32     9     7    1
    33    18    13    1
@<TRIPOS>MOLECULE
*****
 30 33 0 0 0
SMALL
GASTEIGER

@<TRIPOS>ATOM
      1 C          63.4122   88.9973   13.1605 C.3     1  UNL1        0.0795
      2 C          64.2318   88.6941   14.3795 C.3     1  UNL1        0.0178
      3 C          64.5707   87.2733   14.7212 C.3     1  UNL1        0.0029
      4 C          64.0899   86.1558   13.8437 C.3     1  UNL1        0.0178
      5 C          63.2703   86.4590   12.6246 C.3     1  UNL1        0.0799
      6 N          62.9314   87.8798   12.2830 N.3     1  UNL1       -0.1583
      7 C          62.7895   85.3415   11.7471 C.3     1  UNL1        0.0237
      8 C          61.8734   84.5086   10.9003 C.3     1  UNL1        0.0019
      9 C          61.3692   85.7729   11.5307 C.3     1  UNL1        0.0019
     10 C          64.0428   84.5221   11.6588 C.3     1  UNL1        0.0866
     11 C          63.9579   83.0476   11.3964 C.2     1  UNL1        0.2257
     12 O          64.6370   82.4593   10.1954 O.2     1  UNL1       -0.2749
     13 N          63.1938   82.1616   12.3351 N.am    1  UNL1       -0.2795
     14 C          62.5147   82.7499   13.5361 C.3     1  UNL1        0.0934
     15 C          61.7506   81.8638   14.4748 C.3     1  UNL1        0.0216
     16 C          61.6657   80.3895   14.2124 C.3     1  UNL1        0.0035
     17 C          62.3448   79.8010   13.0114 C.3     1  UNL1        0.0216
     18 C          63.1089   80.6871   12.0727 C.3     1  UNL1        0.0934
     19 S          62.1117   88.1829   11.0639 S.O2    1  UNL1        0.0632
     20 O          60.9081   88.4100   11.9297 O.2     1  UNL1       -0.1528
     21 O          62.9843   88.0507   10.0424 O.2     1  UNL1       -0.1528
     22 C          61.2920   88.4861    9.8448 C.ar    1  UNL1        0.1222
     23 C          60.9003   89.9011    9.5372 C.ar    1  UNL1        0.0208
     24 C          60.0806   90.2042    8.3182 C.ar    1  UNL1        0.0128
     25 C          59.6526   89.0925    7.4067 C.ar    1  UNL1        0.0578
     26 CL         58.8329   89.3957    6.1876 Cl      1  UNL1       -0.0822
     27 C          60.0442   87.6776    7.7142 C.ar    1  UNL1        0.0128
     28 C          60.8640   87.3744    8.9333 C.ar    1  UNL1        0.0208
     29 C          64.1211   91.3198   12.2368 C.3     1  UNL1        0.0015
     30 C          63.0733   90.4180   12.8188 C.3     1  UNL1        0.0177
@<TRIPOS>BOND
     1    29    30    1
     2     1    30    1
     3     1     2    1
     4     2     3    1
     5     3     4    1
     6     4     5    1
     7     5     7    1
     8     7    10    1
     9    10    11    1
    10    11    12    2
    11    11    13   am
    12    13    14    1
    13    14    15    1
    14    15    16    1
    15    16    17    1
    16    17    18    1
    17     7     8    1
    18     8     9    1
    19     5     6    1
    20     6    19    1
    21    19    20    2
    22    19    21    2
    23    19    22    1
    24    22    23   ar
    25    23    24   ar
    26    24    25   ar
    27    25    26    1
    28    25    27   ar
    29    27    28   ar
    30     6     1    1
    31    28    22   ar
    32     9     7    1
    33    18    13    1
@<TRIPOS>MOLECULE
*****
 30 33 0 0 0
SMALL
GASTEIGER

@<TRIPOS>ATOM
      1 C          63.4592   84.6183    9.5785 C.3     1  UNL1        0.0795
      2 C          64.2705   83.3626    9.4568 C.3     1  UNL1        0.0178
      3 C          64.6445   82.5891   10.6864 C.3     1  UNL1        0.0029
      4 C          64.2073   83.0715   12.0377 C.3     1  UNL1        0.0178
      5 C          63.3960   84.3272   12.1594 C.3     1  UNL1        0.0799
      6 N          63.0219   85.1006   10.9298 N.3     1  UNL1       -0.1583
      7 C          62.9587   84.8096   13.5108 C.3     1  UNL1        0.0237
      8 C          62.1551   84.9328   14.7714 C.3     1  UNL1        0.0019
      9 C          61.7522   83.9429   13.7189 C.3     1  UNL1        0.0019
     10 C          64.0133   85.8438   13.7720 C.3     1  UNL1        0.0866
     11 C          63.9275   86.7107   14.9931 C.2     1  UNL1        0.2257
     12 O          63.8599   86.0843   16.3543 O.2     1  UNL1       -0.2749
     13 N          63.9092   88.2040   14.8529 N.am    1  UNL1       -0.2795
     14 C          63.9767   88.8304   13.4917 C.3     1  UNL1        0.0934
     15 C          63.9585   90.3238   13.3515 C.3     1  UNL1        0.0216
     16 C          63.8726   91.1907   14.5726 C.3     1  UNL1        0.0035
     17 C          63.8051   90.5643   15.9338 C.3     1  UNL1        0.0216
     18 C          63.8234   89.0709   16.0741 C.3     1  UNL1        0.0934
     19 S          62.2106   86.3564   11.0516 S.O2    1  UNL1        0.0632
     20 O          60.9604   85.5755   10.7738 O.2     1  UNL1       -0.1528
     21 O          63.1257   87.3117   11.3207 O.2     1  UNL1       -0.1528
     22 C          61.3992   87.6121   11.1734 C.ar    1  UNL1        0.1222
     23 C          61.8812   88.8813   10.5355 C.ar    1  UNL1        0.0208
     24 C          61.0698   90.1370   10.6572 C.ar    1  UNL1        0.0128
     25 C          59.7765   90.1236   11.4169 C.ar    1  UNL1        0.0578
     26 CL         58.9651   91.3793   11.5386 Cl      1  UNL1       -0.0822
     27 C          59.2945   88.8545   12.0548 C.ar    1  UNL1        0.0128
     28 C          60.1059   87.5987   11.9330 C.ar    1  UNL1        0.0208
     29 C          62.1521   84.7908    7.3398 C.3     1  UNL1        0.0015
     30 C          63.0851   85.3917    8.3489 C.3     1  UNL1        0.0177
@<TRIPOS>BOND
     1    29    30    1
     2     1    30    1
     3     1     2    1
     4     2     3    1
     5     3     4    1
     6     4     5    1
     7     5     7    1
     8     7    10    1
     9    10    11    1
    10    11    12    2
    11    11    13   am
    12    13    14    1
    13    14    15    1
    14    15    16    1
    15    16    17    1
    16    17    18    1
    17     7     8    1
    18     8     9    1
    19     5     6    1
    20     6    19    1
    21    19    20    2
    22    19    21    2
    23    19    22    1
    24    22    23   ar
    25    23    24   ar
    26    24    25   ar
    27    25    26    1
    28    25    27   ar
    29    27    28   ar
    30     6     1    1
    31    28    22   ar
    32     9     7    1
    33    18    13    1
