@<TRIPOS>MOLECULE
*****
 31 34 0 0 0
SMALL
GASTEIGER

@<TRIPOS>ATOM
      1 N          63.2444   89.5481   14.6978 N.pl3   1  UNL1       -0.2754
      2 H          62.3967   89.7673   14.2476 H       1  UNL1        0.1556
      3 C          66.2332   91.9875   15.1238 C.ar    1  UNL1        0.1423
      4 N          65.1980   92.6437   15.9886 N.ar    1  UNL1       -0.1413
      5 N          63.9524   91.8097   15.9342 N.ar    1  UNL1       -0.1256
      6 C          64.2177   90.6381   15.0359 C.ar    1  UNL1        0.1869
      7 S          65.6274   90.7480   14.5350 S.2     1  UNL1       -0.0321
      8 C          67.6291   92.4838   14.8890 C.3     1  UNL1        0.1709
      9 C          67.9379   92.3041   16.3459 C.3     1  UNL1        0.0429
     10 O          69.0251   92.9801   14.6544 O.3     1  UNL1       -0.3745
     11 H          69.1377   93.1966   13.7156 H       1  UNL1        0.2113
     12 C          67.8326   92.0937    9.6273 C.3     1  UNL1        0.0527
     13 C          67.4138   92.4842   11.0136 C.ar    1  UNL1        0.0661
     14 C          66.2764   93.3959   11.3672 C.ar    1  UNL1        0.0513
     15 S          66.2186   93.5068   12.8620 S.2     1  UNL1       -0.0680
     16 C          67.3203   92.6635   13.4323 C.ar    1  UNL1        0.1179
     17 N          68.0590   92.0316   12.2899 N.ar    1  UNL1       -0.2443
     18 C          63.5625   88.1240   15.0456 C.ar    1  UNL1        0.1549
     19 C          63.3777   87.4821   16.3887 C.ar    1  UNL1        0.0564
     20 C          63.8222   86.0533   16.2846 C.ar    1  UNL1        0.0984
     21 N          64.2818   85.8122   14.8772 N.ar    1  UNL1       -0.2436
     22 N          64.1212   87.0920   14.1115 N.ar    1  UNL1       -0.1537
     23 C          64.8092   84.5184   14.3314 C.3     1  UNL1        0.1583
     24 C          63.8581   83.4742   13.8263 C.ar    1  UNL1        0.0570
     25 C          62.7985   82.9231   14.7337 C.ar    1  UNL1        0.1402
     26 F          62.6898   83.4163   16.1462 F       1  UNL1       -0.2044
     27 C          61.8475   81.8789   14.2287 C.ar    1  UNL1        0.0295
     28 C          61.9561   81.3857   12.8163 C.ar    1  UNL1        0.0046
     29 C          63.0157   81.9368   11.9089 C.ar    1  UNL1        0.0295
     30 C          63.9668   82.9810   12.4139 C.ar    1  UNL1        0.1402
     31 F          65.0265   83.5321   11.5065 F       1  UNL1       -0.2044
@<TRIPOS>BOND
     1    12    13    1
     2    13    14   ar
     3    14    15   ar
     4    15    16   ar
     5    16     8    1
     6     8     9    1
     7     8    10    1
     8     8     3    1
     9     3     4   ar
    10     4     5   ar
    11     5     6   ar
    12     6     1    1
    13     1    18    1
    14    18    19   ar
    15    19    20   ar
    16    20    21   ar
    17    21    23    1
    18    23    24    1
    19    24    25   ar
    20    25    26    1
    21    25    27   ar
    22    27    28   ar
    23    28    29   ar
    24    29    30   ar
    25    30    31    1
    26    21    22   ar
    27     6     7   ar
    28    16    17   ar
    29    17    13   ar
    30     7     3   ar
    31    22    18   ar
    32    30    24   ar
    33    10    11    1
    34     1     2    1
@<TRIPOS>MOLECULE
*****
 31 34 0 0 0
SMALL
GASTEIGER

@<TRIPOS>ATOM
      1 N          63.2444   89.5374   14.6672 N.pl3   1  UNL1       -0.2754
      2 H          62.4019   89.7536   14.2061 H       1  UNL1        0.1556
      3 C          66.2193   91.9896   15.1167 C.ar    1  UNL1        0.1423
      4 N          65.1780   92.6355   15.9819 N.ar    1  UNL1       -0.1413
      5 N          63.9369   91.7955   15.9188 N.ar    1  UNL1       -0.1256
      6 C          64.2111   90.6304   15.0146 C.ar    1  UNL1        0.1869
      7 S          65.6218   90.7504   14.5189 S.2     1  UNL1       -0.0321
      8 C          67.6134   92.4944   14.8893 C.3     1  UNL1        0.1709
      9 C          67.9173   92.3115   16.3468 C.3     1  UNL1        0.0429
     10 O          69.0075   92.9991   14.6620 O.3     1  UNL1       -0.3745
     11 H          69.1228   93.2195   13.7244 H       1  UNL1        0.2113
     12 C          67.8154   92.0919    9.6284 C.3     1  UNL1        0.0527
     13 C          67.4024   92.4923   11.0137 C.ar    1  UNL1        0.0661
     14 C          66.2814   93.4252   11.3645 C.ar    1  UNL1        0.0513
     15 S          66.2240   93.5396   12.8590 S.2     1  UNL1       -0.0680
     16 C          67.3095   92.6773   13.4320 C.ar    1  UNL1        0.1179
     17 N          68.0378   92.0301   12.2914 N.ar    1  UNL1       -0.2443
     18 C          63.5615   88.1149   15.0223 C.ar    1  UNL1        0.1549
     19 C          63.3753   87.4796   16.3683 C.ar    1  UNL1        0.0564
     20 C          63.8192   86.0501   16.2715 C.ar    1  UNL1        0.0984
     21 N          64.2796   85.8018   14.8657 N.ar    1  UNL1       -0.2436
     22 N          64.1203   87.0779   14.0936 N.ar    1  UNL1       -0.1537
     23 C          64.8067   84.5051   14.3266 C.3     1  UNL1        0.1583
     24 C          63.8555   83.4598   13.8239 C.ar    1  UNL1        0.0570
     25 C          63.9646   82.9628   12.4129 C.ar    1  UNL1        0.1402
     26 F          65.0248   83.5110   11.5045 F       1  UNL1       -0.2044
     27 C          63.0134   81.9175   11.9104 C.ar    1  UNL1        0.0295
     28 C          61.9531   81.3693   12.8188 C.ar    1  UNL1        0.0046
     29 C          61.8441   81.8663   14.2298 C.ar    1  UNL1        0.0295
     30 C          62.7953   82.9115   14.7324 C.ar    1  UNL1        0.1402
     31 F          62.6862   83.4086   16.1435 F       1  UNL1       -0.2044
@<TRIPOS>BOND
     1    12    13    1
     2    13    14   ar
     3    14    15   ar
     4    15    16   ar
     5    16     8    1
     6     8     9    1
     7     8    10    1
     8     8     3    1
     9     3     4   ar
    10     4     5   ar
    11     5     6   ar
    12     6     1    1
    13     1    18    1
    14    18    19   ar
    15    19    20   ar
    16    20    21   ar
    17    21    23    1
    18    23    24    1
    19    24    25   ar
    20    25    26    1
    21    25    27   ar
    22    27    28   ar
    23    28    29   ar
    24    29    30   ar
    25    30    31    1
    26    21    22   ar
    27     6     7   ar
    28    16    17   ar
    29    17    13   ar
    30     7     3   ar
    31    22    18   ar
    32    30    24   ar
    33    10    11    1
    34     1     2    1
@<TRIPOS>MOLECULE
*****
 31 34 0 0 0
SMALL
GASTEIGER

@<TRIPOS>ATOM
      1 N          62.8717   85.2956    9.3608 N.pl3   1  UNL1       -0.2754
      2 H          63.1120   85.1971    8.4112 H       1  UNL1        0.1556
      3 C          63.3362   82.8163   12.3108 C.ar    1  UNL1        0.1423
      4 N          64.5032   82.4536   11.4409 N.ar    1  UNL1       -0.1413
      5 N          64.4712   83.3382   10.2300 N.ar    1  UNL1       -0.1256
      6 C          63.2845   84.2477   10.3515 C.ar    1  UNL1        0.1869
      7 S          62.5831   83.9251   11.6375 S.2     1  UNL1       -0.0321
      8 C          62.9843   82.1817   13.6236 C.3     1  UNL1        0.1709
      9 C          62.5445   80.9403   12.9055 C.3     1  UNL1        0.0429
     10 O          62.6324   81.5469   14.9363 O.3     1  UNL1       -0.3745
     11 H          62.8247   82.1669   15.6571 H       1  UNL1        0.2113
     12 C          63.0780   86.3212   16.9000 C.3     1  UNL1        0.0527
     13 C          63.4672   85.3257   15.8478 C.ar    1  UNL1        0.0661
     14 C          64.7348   85.3405   15.0458 C.ar    1  UNL1        0.0513
     15 S          64.7082   84.1646   14.1150 S.2     1  UNL1       -0.0680
     16 C          63.4241   83.4229   14.3417 C.ar    1  UNL1        0.1179
     17 N          62.6572   84.1406   15.4126 N.ar    1  UNL1       -0.2443
     18 C          62.0929   86.4937    9.8170 C.ar    1  UNL1        0.1549
     19 C          60.7072   86.8639    9.3780 C.ar    1  UNL1        0.0564
     20 C          60.3209   88.1309   10.0820 C.ar    1  UNL1        0.0984
     21 N          61.4679   88.5437   10.9561 N.ar    1  UNL1       -0.2436
     22 N          62.5631   87.5318   10.7923 N.ar    1  UNL1       -0.1537
     23 C          61.5121   89.7555   11.8389 C.3     1  UNL1        0.1583
     24 C          62.7895   90.5273   11.9901 C.ar    1  UNL1        0.0570
     25 C          63.4597   90.6135   13.3292 C.ar    1  UNL1        0.1402
     26 F          62.8525   89.9280   14.5173 F       1  UNL1       -0.2044
     27 C          64.7370   91.3852   13.4803 C.ar    1  UNL1        0.0295
     28 C          65.3441   92.0706   12.2922 C.ar    1  UNL1        0.0046
     29 C          64.6740   91.9844   10.9531 C.ar    1  UNL1        0.0295
     30 C          63.3966   91.2127   10.8020 C.ar    1  UNL1        0.1402
     31 F          62.7264   91.1265    9.4628 F       1  UNL1       -0.2044
@<TRIPOS>BOND
     1    12    13    1
     2    13    14   ar
     3    14    15   ar
     4    15    16   ar
     5    16     8    1
     6     8     9    1
     7     8    10    1
     8     8     3    1
     9     3     4   ar
    10     4     5   ar
    11     5     6   ar
    12     6     1    1
    13     1    18    1
    14    18    19   ar
    15    19    20   ar
    16    20    21   ar
    17    21    23    1
    18    23    24    1
    19    24    25   ar
    20    25    26    1
    21    25    27   ar
    22    27    28   ar
    23    28    29   ar
    24    29    30   ar
    25    30    31    1
    26    21    22   ar
    27     6     7   ar
    28    16    17   ar
    29    17    13   ar
    30     7     3   ar
    31    22    18   ar
    32    30    24   ar
    33    10    11    1
    34     1     2    1
@<TRIPOS>MOLECULE
*****
 31 34 0 0 0
SMALL
GASTEIGER

@<TRIPOS>ATOM
      1 N          63.7093   87.4455   16.0558 N.pl3   1  UNL1       -0.2754
      2 H          63.5260   87.2961   17.0115 H       1  UNL1        0.1556
      3 C          64.2270   90.7347   14.0612 C.ar    1  UNL1        0.1423
      4 N          63.5812   91.2529   15.3119 N.ar    1  UNL1       -0.1413
      5 N          63.3086   90.0838   16.2114 N.ar    1  UNL1       -0.1256
      6 C          63.7860   88.8431   15.5165 C.ar    1  UNL1        0.1869
      7 S          64.3536   89.2454   14.1876 S.2     1  UNL1       -0.0321
      8 C          64.6686   91.5609   12.8896 C.3     1  UNL1        0.1709
      9 C          63.5575   90.9835   12.0637 C.3     1  UNL1        0.0429
     10 O          65.1102   92.3870   11.7181 O.3     1  UNL1       -0.3745
     11 H          65.8828   92.9171   11.9691 H       1  UNL1        0.2113
     12 C          68.6524   92.0289   16.3233 C.3     1  UNL1        0.0527
     13 C          67.6109   92.3533   15.2939 C.ar    1  UNL1        0.0661
     14 C          67.3681   93.6999   14.6792 C.ar    1  UNL1        0.0513
     15 S          66.2364   93.5670   13.7037 S.2     1  UNL1       -0.0680
     16 C          65.7796   92.1382   13.7155 C.ar    1  UNL1        0.1179
     17 N          66.6292   91.3882   14.6983 N.ar    1  UNL1       -0.2443
     18 C          63.9117   86.2756   15.1391 C.ar    1  UNL1        0.1549
     19 C          65.1072   85.3698   15.1164 C.ar    1  UNL1        0.0564
     20 C          64.8885   84.3405   14.0474 C.ar    1  UNL1        0.0984
     21 N          63.5579   84.6102   13.4095 N.ar    1  UNL1       -0.2436
     22 N          62.9542   85.8061   14.0842 N.ar    1  UNL1       -0.1537
     23 C          62.9396   83.8223   12.2929 C.3     1  UNL1        0.1583
     24 C          62.7840   84.4406   10.9351 C.ar    1  UNL1        0.0570
     25 C          61.8038   85.5568   10.7272 C.ar    1  UNL1        0.1402
     26 F          60.9791   86.0547   11.8771 F       1  UNL1       -0.2044
     27 C          61.6482   86.1751    9.3695 C.ar    1  UNL1        0.0295
     28 C          62.4728   85.6773    8.2197 C.ar    1  UNL1        0.0046
     29 C          63.4530   84.5611    8.4276 C.ar    1  UNL1        0.0295
     30 C          63.6086   83.9428    9.7853 C.ar    1  UNL1        0.1402
     31 F          64.5889   82.8265    9.9932 F       1  UNL1       -0.2044
@<TRIPOS>BOND
     1    12    13    1
     2    13    14   ar
     3    14    15   ar
     4    15    16   ar
     5    16     8    1
     6     8     9    1
     7     8    10    1
     8     8     3    1
     9     3     4   ar
    10     4     5   ar
    11     5     6   ar
    12     6     1    1
    13     1    18    1
    14    18    19   ar
    15    19    20   ar
    16    20    21   ar
    17    21    23    1
    18    23    24    1
    19    24    25   ar
    20    25    26    1
    21    25    27   ar
    22    27    28   ar
    23    28    29   ar
    24    29    30   ar
    25    30    31    1
    26    21    22   ar
    27     6     7   ar
    28    16    17   ar
    29    17    13   ar
    30     7     3   ar
    31    22    18   ar
    32    30    24   ar
    33    10    11    1
    34     1     2    1
@<TRIPOS>MOLECULE
*****
 31 34 0 0 0
SMALL
GASTEIGER

@<TRIPOS>ATOM
      1 N          63.1197   87.8532   16.7862 N.pl3   1  UNL1       -0.2754
      2 H          62.7344   87.8626   17.6921 H       1  UNL1        0.1556
      3 C          64.1163   90.7531   14.4065 C.ar    1  UNL1        0.1423
      4 N          63.7046   91.5128   15.6326 N.ar    1  UNL1       -0.1413
      5 N          63.2812   90.5190   16.6732 N.ar    1  UNL1       -0.1256
      6 C          63.4312   89.1450   16.0903 C.ar    1  UNL1        0.1869
      7 S          63.9473   89.2897   14.6894 S.2     1  UNL1       -0.0321
      8 C          64.6102   91.3517   13.1228 C.3     1  UNL1        0.1709
      9 C          63.4739   90.7075   12.3853 C.3     1  UNL1        0.0429
     10 O          65.1040   91.9503   11.8391 O.3     1  UNL1       -0.3745
     11 H          65.9032   92.4720   12.0121 H       1  UNL1        0.2113
     12 C          68.7174   92.0987   16.3559 C.3     1  UNL1        0.0527
     13 C          67.6343   92.3392   15.3464 C.ar    1  UNL1        0.0661
     14 C          67.3556   93.6350   14.6441 C.ar    1  UNL1        0.0513
     15 S          66.1888   93.4228   13.7256 S.2     1  UNL1       -0.0680
     16 C          65.7464   91.9958   13.8603 C.ar    1  UNL1        0.1179
     17 N          66.6398   91.3262   14.8620 N.ar    1  UNL1       -0.2443
     18 C          63.3954   86.5472   16.1019 C.ar    1  UNL1        0.1549
     19 C          64.7220   86.0943   15.5679 C.ar    1  UNL1        0.0564
     20 C          64.5392   84.7320   14.9674 C.ar    1  UNL1        0.0984
     21 N          63.0997   84.3429   15.1301 N.ar    1  UNL1       -0.2436
     22 N          62.3928   85.4648   15.8313 N.ar    1  UNL1       -0.1537
     23 C          62.4766   83.0577   14.6721 C.3     1  UNL1        0.1583
     24 C          62.7386   82.5494   13.2853 C.ar    1  UNL1        0.0570
     25 C          62.8781   81.0762   13.0404 C.ar    1  UNL1        0.1402
     26 F          62.7554   80.1111   14.1821 F       1  UNL1       -0.2044
     27 C          63.1401   80.5680   11.6536 C.ar    1  UNL1        0.0295
     28 C          63.2627   81.5331   10.5119 C.ar    1  UNL1        0.0046
     29 C          63.1233   83.0064   10.7569 C.ar    1  UNL1        0.0295
     30 C          62.8613   83.5145   12.1436 C.ar    1  UNL1        0.1402
     31 F          62.7218   84.9878   12.3886 F       1  UNL1       -0.2044
@<TRIPOS>BOND
     1    12    13    1
     2    13    14   ar
     3    14    15   ar
     4    15    16   ar
     5    16     8    1
     6     8     9    1
     7     8    10    1
     8     8     3    1
     9     3     4   ar
    10     4     5   ar
    11     5     6   ar
    12     6     1    1
    13     1    18    1
    14    18    19   ar
    15    19    20   ar
    16    20    21   ar
    17    21    23    1
    18    23    24    1
    19    24    25   ar
    20    25    26    1
    21    25    27   ar
    22    27    28   ar
    23    28    29   ar
    24    29    30   ar
    25    30    31    1
    26    21    22   ar
    27     6     7   ar
    28    16    17   ar
    29    17    13   ar
    30     7     3   ar
    31    22    18   ar
    32    30    24   ar
    33    10    11    1
    34     1     2    1
@<TRIPOS>MOLECULE
*****
 31 34 0 0 0
SMALL
GASTEIGER

@<TRIPOS>ATOM
      1 N          61.9577   89.7143   11.5246 N.pl3   1  UNL1       -0.2754
      2 H          61.0297   90.0417   11.5533 H       1  UNL1        0.1556
      3 C          65.0545   92.0110   11.9726 C.ar    1  UNL1        0.1423
      4 N          64.6307   92.3647   10.5778 N.ar    1  UNL1       -0.1413
      5 N          63.4191   91.5474   10.2403 N.ar    1  UNL1       -0.1256
      6 C          63.0940   90.6886   11.4264 C.ar    1  UNL1        0.1869
      7 S          64.1048   90.9752   12.4970 S.2     1  UNL1       -0.0321
      8 C          66.2229   92.5914   12.7129 C.3     1  UNL1        0.1709
      9 C          65.6702   92.0596   14.0020 C.3     1  UNL1        0.0429
     10 O          67.3912   93.1718   13.4533 O.3     1  UNL1       -0.3745
     11 H          67.9800   93.6211   12.8270 H       1  UNL1        0.2113
     12 C          67.4907   95.8526    8.7585 C.3     1  UNL1        0.0527
     13 C          67.3583   94.6223    9.6062 C.ar    1  UNL1        0.0661
     14 C          67.8938   93.2610    9.2742 C.ar    1  UNL1        0.0513
     15 S          67.5336   92.3345   10.3976 S.2     1  UNL1       -0.0680
     16 C          66.7755   93.1232   11.4239 C.ar    1  UNL1        0.1179
     17 N          66.6672   94.5371   10.9348 N.ar    1  UNL1       -0.2443
     18 C          62.2354   88.2412   11.5790 C.ar    1  UNL1        0.1549
     19 C          61.7142   87.2098   10.6227 C.ar    1  UNL1        0.0564
     20 C          62.2397   85.8721   11.0520 C.ar    1  UNL1        0.0984
     21 N          63.0856   86.0767   12.2737 N.ar    1  UNL1       -0.2436
     22 N          63.0830   87.5409   12.5994 N.ar    1  UNL1       -0.1537
     23 C          63.8075   85.0053   13.0358 C.3     1  UNL1        0.1583
     24 C          63.2620   83.6083   13.0646 C.ar    1  UNL1        0.0570
     25 C          62.3932   83.1657   14.2045 C.ar    1  UNL1        0.1402
     26 F          62.0698   84.1201   15.3155 F       1  UNL1       -0.2044
     27 C          61.8478   81.7687   14.2332 C.ar    1  UNL1        0.0295
     28 C          62.1711   80.8143   13.1221 C.ar    1  UNL1        0.0046
     29 C          63.0400   81.2568   11.9823 C.ar    1  UNL1        0.0295
     30 C          63.5854   82.6538   11.9535 C.ar    1  UNL1        0.1402
     31 F          64.4542   83.0965   10.8137 F       1  UNL1       -0.2044
@<TRIPOS>BOND
     1    12    13    1
     2    13    14   ar
     3    14    15   ar
     4    15    16   ar
     5    16     8    1
     6     8     9    1
     7     8    10    1
     8     8     3    1
     9     3     4   ar
    10     4     5   ar
    11     5     6   ar
    12     6     1    1
    13     1    18    1
    14    18    19   ar
    15    19    20   ar
    16    20    21   ar
    17    21    23    1
    18    23    24    1
    19    24    25   ar
    20    25    26    1
    21    25    27   ar
    22    27    28   ar
    23    28    29   ar
    24    29    30   ar
    25    30    31    1
    26    21    22   ar
    27     6     7   ar
    28    16    17   ar
    29    17    13   ar
    30     7     3   ar
    31    22    18   ar
    32    30    24   ar
    33    10    11    1
    34     1     2    1
@<TRIPOS>MOLECULE
*****
 31 34 0 0 0
SMALL
GASTEIGER

@<TRIPOS>ATOM
      1 N          61.3838   86.1275   10.2726 N.pl3   1  UNL1       -0.2754
      2 H          60.7902   85.7710    9.5728 H       1  UNL1        0.1556
      3 C          63.5233   84.0413   12.7496 C.ar    1  UNL1        0.1423
      4 N          64.0627   83.5693   11.4320 N.ar    1  UNL1       -0.1413
      5 N          63.3269   84.2934   10.3437 N.ar    1  UNL1       -0.1256
      6 C          62.3327   85.2128   10.9888 C.ar    1  UNL1        0.1869
      7 S          62.4540   85.0570   12.4757 S.2     1  UNL1       -0.0321
      8 C          63.9739   83.5786   14.1035 C.3     1  UNL1        0.1709
      9 C          64.8370   84.7986   14.2329 C.3     1  UNL1        0.0429
     10 O          64.4246   83.1161   15.4573 O.3     1  UNL1       -0.3745
     11 H          63.9956   82.2726   15.6702 H       1  UNL1        0.2113
     12 C          59.8067   80.3387   14.2325 C.3     1  UNL1        0.0527
     13 C          61.1954   80.8694   14.0333 C.ar    1  UNL1        0.0661
     14 C          62.3701   80.0933   13.5161 C.ar    1  UNL1        0.0513
     15 S          63.5540   81.0137   13.4794 S.2     1  UNL1       -0.0680
     16 C          63.1109   82.3587   13.9740 C.ar    1  UNL1        0.1179
     17 N          61.6532   82.2695   14.3163 N.ar    1  UNL1       -0.2443
     18 C          61.3393   87.5854   10.6226 C.ar    1  UNL1        0.1549
     19 C          60.1503   88.3282   11.1561 C.ar    1  UNL1        0.0564
     20 C          60.5522   89.7584   11.3638 C.ar    1  UNL1        0.0984
     21 N          61.9895   89.8995   10.9587 N.ar    1  UNL1       -0.2436
     22 N          62.4760   88.5565   10.5006 N.ar    1  UNL1       -0.1537
     23 C          62.7984   91.1619   11.0037 C.3     1  UNL1        0.1583
     24 C          63.9150   91.3023   11.9955 C.ar    1  UNL1        0.0570
     25 C          63.8335   90.6036   13.3204 C.ar    1  UNL1        0.1402
     26 F          62.6356   89.7646   13.6534 F       1  UNL1       -0.2044
     27 C          64.9501   90.7441   14.3121 C.ar    1  UNL1        0.0295
     28 C          66.1480   91.5831   13.9790 C.ar    1  UNL1        0.0046
     29 C          66.2294   92.2817   12.6542 C.ar    1  UNL1        0.0295
     30 C          65.1129   92.1413   11.6624 C.ar    1  UNL1        0.1402
     31 F          65.1943   92.8399   10.3375 F       1  UNL1       -0.2044
@<TRIPOS>BOND
     1    12    13    1
     2    13    14   ar
     3    14    15   ar
     4    15    16   ar
     5    16     8    1
     6     8     9    1
     7     8    10    1
     8     8     3    1
     9     3     4   ar
    10     4     5   ar
    11     5     6   ar
    12     6     1    1
    13     1    18    1
    14    18    19   ar
    15    19    20   ar
    16    20    21   ar
    17    21    23    1
    18    23    24    1
    19    24    25   ar
    20    25    26    1
    21    25    27   ar
    22    27    28   ar
    23    28    29   ar
    24    29    30   ar
    25    30    31    1
    26    21    22   ar
    27     6     7   ar
    28    16    17   ar
    29    17    13   ar
    30     7     3   ar
    31    22    18   ar
    32    30    24   ar
    33    10    11    1
    34     1     2    1
@<TRIPOS>MOLECULE
*****
 31 34 0 0 0
SMALL
GASTEIGER

@<TRIPOS>ATOM
      1 N          62.3063   90.8869   12.2728 N.pl3   1  UNL1       -0.2754
      2 H          61.5681   91.5371   12.2333 H       1  UNL1        0.1556
      3 C          65.7929   91.6570   13.7946 C.ar    1  UNL1        0.1423
      4 N          64.9494   91.5704   15.0319 N.ar    1  UNL1       -0.1413
      5 N          63.5406   91.2715   14.6124 N.ar    1  UNL1       -0.1256
      6 C          63.5135   91.1732   13.1159 C.ar    1  UNL1        0.1869
      7 S          64.9055   91.4115   12.6104 S.2     1  UNL1       -0.0321
      8 C          67.2654   91.9395   13.7495 C.3     1  UNL1        0.1709
      9 C          67.4708   91.0600   14.9472 C.3     1  UNL1        0.0429
     10 O          68.7379   92.2219   13.7045 O.3     1  UNL1       -0.3745
     11 H          68.9302   92.8189   12.9646 H       1  UNL1        0.2113
     12 C          67.5133   93.8876    8.8482 C.3     1  UNL1        0.0527
     13 C          67.1740   93.7144   10.2989 C.ar    1  UNL1        0.0661
     14 C          66.3142   94.6301   11.1188 C.ar    1  UNL1        0.0513
     15 S          66.2438   94.0767   12.5112 S.2     1  UNL1       -0.0680
     16 C          67.0601   92.8189   12.5519 C.ar    1  UNL1        0.1179
     17 N          67.6350   92.5950   11.1846 N.ar    1  UNL1       -0.2443
     18 C          62.2239   89.6100   11.4900 C.ar    1  UNL1        0.1549
     19 C          62.6064   89.4321   10.0505 C.ar    1  UNL1        0.0564
     20 C          62.3633   87.9990    9.6801 C.ar    1  UNL1        0.0984
     21 N          61.8306   87.2913   10.8907 N.ar    1  UNL1       -0.2436
     22 N          61.7445   88.2869   12.0092 N.ar    1  UNL1       -0.1537
     23 C          61.4508   85.8423   10.9689 C.3     1  UNL1        0.1583
     24 C          62.5140   84.7956   11.1243 C.ar    1  UNL1        0.0570
     25 C          62.8310   84.2444   12.4829 C.ar    1  UNL1        0.1402
     26 F          62.0848   84.7400   13.6861 F       1  UNL1       -0.2044
     27 C          63.8941   83.1978   12.6383 C.ar    1  UNL1        0.0295
     28 C          64.6403   82.7022   11.4351 C.ar    1  UNL1        0.0046
     29 C          64.3233   83.2534   10.0765 C.ar    1  UNL1        0.0295
     30 C          63.2602   84.3000    9.9211 C.ar    1  UNL1        0.1402
     31 F          62.9432   84.8512    8.5625 F       1  UNL1       -0.2044
@<TRIPOS>BOND
     1    12    13    1
     2    13    14   ar
     3    14    15   ar
     4    15    16   ar
     5    16     8    1
     6     8     9    1
     7     8    10    1
     8     8     3    1
     9     3     4   ar
    10     4     5   ar
    11     5     6   ar
    12     6     1    1
    13     1    18    1
    14    18    19   ar
    15    19    20   ar
    16    20    21   ar
    17    21    23    1
    18    23    24    1
    19    24    25   ar
    20    25    26    1
    21    25    27   ar
    22    27    28   ar
    23    28    29   ar
    24    29    30   ar
    25    30    31    1
    26    21    22   ar
    27     6     7   ar
    28    16    17   ar
    29    17    13   ar
    30     7     3   ar
    31    22    18   ar
    32    30    24   ar
    33    10    11    1
    34     1     2    1
@<TRIPOS>MOLECULE
*****
 31 34 0 0 0
SMALL
GASTEIGER

@<TRIPOS>ATOM
      1 N          64.6606   85.9389   15.5445 N.pl3   1  UNL1       -0.2754
      2 H          65.5467   85.7883   15.9463 H       1  UNL1        0.1556
      3 C          63.1234   82.8769   13.7205 C.ar    1  UNL1        0.1423
      4 N          62.1211   83.0956   14.8148 N.ar    1  UNL1       -0.1413
      5 N          62.5750   84.2692   15.6313 N.ar    1  UNL1       -0.1256
      6 C          63.8578   84.7759   15.0416 C.ar    1  UNL1        0.1869
      7 S          64.1967   83.9154   13.8606 S.2     1  UNL1       -0.0321
      8 C          63.0630   81.8074   12.6704 C.3     1  UNL1        0.1709
      9 C          62.9942   80.7597   13.7416 C.3     1  UNL1        0.0429
     10 O          63.0026   80.7379   11.6204 O.3     1  UNL1       -0.3745
     11 H          63.0315   81.1462   10.7410 H       1  UNL1        0.2113
     12 C          62.1573   86.1880    9.8651 C.3     1  UNL1        0.0527
     13 C          62.7155   84.8688   10.3098 C.ar    1  UNL1        0.0661
     14 C          63.7601   84.0664    9.5921 C.ar    1  UNL1        0.0513
     15 S          64.0174   82.8219   10.3890 S.2     1  UNL1       -0.0680
     16 C          63.1318   82.8552   11.5993 C.ar    1  UNL1        0.1179
     17 N          62.3273   84.1202   11.5503 N.ar    1  UNL1       -0.2443
     18 C          64.1134   87.3312   15.4353 C.ar    1  UNL1        0.1549
     19 C          63.4760   88.1175   16.5424 C.ar    1  UNL1        0.0564
     20 C          63.0762   89.4539   15.9911 C.ar    1  UNL1        0.0984
     21 N          63.4665   89.4937   14.5433 N.ar    1  UNL1       -0.2436
     22 N          64.1075   88.1818   14.1998 N.ar    1  UNL1       -0.1537
     23 C          63.2532   90.6435   13.6039 C.3     1  UNL1        0.1583
     24 C          64.4306   91.3181   12.9646 C.ar    1  UNL1        0.0570
     25 C          65.6682   91.5873   13.7682 C.ar    1  UNL1        0.1402
     26 F          65.7285   91.1819   15.2111 F       1  UNL1       -0.2044
     27 C          66.8456   92.2618   13.1289 C.ar    1  UNL1        0.0295
     28 C          66.7853   92.6672   11.6859 C.ar    1  UNL1        0.0046
     29 C          65.5477   92.3980   10.8823 C.ar    1  UNL1        0.0295
     30 C          64.3704   91.7234   11.5217 C.ar    1  UNL1        0.1402
     31 F          63.1327   91.4542   10.7181 F       1  UNL1       -0.2044
@<TRIPOS>BOND
     1    12    13    1
     2    13    14   ar
     3    14    15   ar
     4    15    16   ar
     5    16     8    1
     6     8     9    1
     7     8    10    1
     8     8     3    1
     9     3     4   ar
    10     4     5   ar
    11     5     6   ar
    12     6     1    1
    13     1    18    1
    14    18    19   ar
    15    19    20   ar
    16    20    21   ar
    17    21    23    1
    18    23    24    1
    19    24    25   ar
    20    25    26    1
    21    25    27   ar
    22    27    28   ar
    23    28    29   ar
    24    29    30   ar
    25    30    31    1
    26    21    22   ar
    27     6     7   ar
    28    16    17   ar
    29    17    13   ar
    30     7     3   ar
    31    22    18   ar
    32    30    24   ar
    33    10    11    1
    34     1     2    1
