@<TRIPOS>MOLECULE
*****
 38 43 0 0 0
SMALL
GASTEIGER

@<TRIPOS>ATOM
      1 N          64.5088   88.7796   14.7577 N.am    1  UNL1       -0.2823
      2 C          63.5412   89.8285   15.2200 C.2     1  UNL1        0.2493
      3 O          62.1689   89.4330   15.6788 O.2     1  UNL1       -0.2727
      4 H          65.4094   89.0392   14.4567 H       1  UNL1        0.1549
      5 C          63.7995   83.6235   10.5053 C.3     1  UNL1        0.1168
      6 N          63.3390   82.5925   11.4928 N.am    1  UNL1       -0.2567
      7 C          62.9928   81.1665   11.1817 C.2     1  UNL1        0.3100
      8 O          63.0464   80.5212    9.8287 O.2     1  UNL1       -0.2522
      9 N          62.5836   80.4992   12.4613 N.am    1  UNL1       -0.2382
     10 C          62.6769   81.5128   13.5631 C.2     1  UNL1        0.2460
     11 O          62.3591   81.2744   15.0095 O.2     1  UNL1       -0.2729
     12 C          63.1437   82.8065   12.9645 C.3     1  UNL1        0.1386
     13 C          62.9485   83.0206   14.4363 C.3     1  UNL1        0.0535
     14 C          63.2947   84.4465   14.7473 C.ar    1  UNL1       -0.0239
     15 C          63.2901   85.2236   16.0303 C.ar    1  UNL1       -0.0032
     16 C          63.6948   86.6679   16.0338 C.ar    1  UNL1        0.0143
     17 C          64.1040   87.3352   14.7542 C.ar    1  UNL1        0.0500
     18 C          64.1086   86.5582   13.4712 C.ar    1  UNL1        0.0102
     19 C          63.7039   85.1139   13.4678 C.ar    1  UNL1       -0.0227
     20 C          63.6106   84.1003   12.3660 C.3     1  UNL1        0.0535
     21 H          62.3030   79.5608   12.5605 H       1  UNL1        0.1591
     22 C          63.9459   91.2729   15.2235 C.3     1  UNL1        0.1957
     23 N          65.1432   91.7182   14.4373 N.ar    1  UNL1       -0.2706
     24 C          65.1858   91.9614   12.9578 C.ar    1  UNL1        0.3369
     25 O          64.0387   91.8019   12.0046 O.2     1  UNL1       -0.2459
     26 N          66.5771   92.3920   12.5987 N.ar    1  UNL1       -0.2433
     27 C          67.3943   92.4150   13.8564 C.ar    1  UNL1        0.0854
     28 C          68.8309   92.7614   14.1137 C.ar    1  UNL1        0.0192
     29 C          69.3814   92.6913   15.5072 C.ar    1  UNL1        0.0016
     30 C          68.4952   92.2749   16.6436 C.ar    1  UNL1        0.0016
     31 C          67.0585   91.9285   16.3863 C.ar    1  UNL1        0.0188
     32 C          66.5081   91.9986   14.9927 C.ar    1  UNL1        0.0806
     33 C          67.0654   92.7388   11.2235 C.ar    1  UNL1        0.1511
     34 C          68.0879   91.8722   10.5500 C.ar    1  UNL1        0.0375
     35 C          68.5762   92.2190    9.1748 C.ar    1  UNL1        0.0047
     36 C          68.0420   93.4323    8.4730 C.ar    1  UNL1        0.0208
     37 C          67.0196   94.2989    9.1464 C.ar    1  UNL1        0.1005
     38 N          66.5312   93.9521   10.5217 N.ar    1  UNL1       -0.2263
@<TRIPOS>BOND
     1     5     6    1
     2     6     7   am
     3     7     8    2
     4     7     9   am
     5     9    10   am
     6    10    11    2
     7    10    12    1
     8    12    13    1
     9    13    14    1
    10    14    15   ar
    11    15    16   ar
    12    16    17   ar
    13    17     1    1
    14     1     2   am
    15     2     3    2
    16     2    22    1
    17    22    23    1
    18    23    24   ar
    19    24    25    2
    20    24    26   ar
    21    26    33    1
    22    33    34   ar
    23    34    35   ar
    24    35    36   ar
    25    36    37   ar
    26    37    38   ar
    27    26    27   ar
    28    27    28   ar
    29    28    29   ar
    30    29    30   ar
    31    30    31   ar
    32    31    32   ar
    33    17    18   ar
    34    18    19   ar
    35    19    20    1
    36    12     6    1
    37    19    14   ar
    38    20    12    1
    39    32    23   ar
    40    38    33   ar
    41    32    27   ar
    42     9    21    1
    43     1     4    1
@<TRIPOS>MOLECULE
*****
 38 43 0 0 0
SMALL
GASTEIGER

@<TRIPOS>ATOM
      1 N          64.5417   87.9307   14.2643 N.am    1  UNL1       -0.2823
      2 C          63.8885   88.9417   15.1594 C.2     1  UNL1        0.2493
      3 O          62.8165   88.5139   16.1173 O.2     1  UNL1       -0.2727
      4 H          65.2453   88.2115   13.6356 H       1  UNL1        0.1549
      5 C          63.6880   82.6179   10.2373 C.3     1  UNL1        0.1168
      6 N          63.2392   81.6319   11.2748 N.am    1  UNL1       -0.2567
      7 C          62.8722   80.1985   11.0284 C.2     1  UNL1        0.3100
      8 O          62.8896   79.4995    9.7013 O.2     1  UNL1       -0.2522
      9 N          62.4847   79.5869   12.3421 N.am    1  UNL1       -0.2382
     10 C          62.6123   80.6423   13.4003 C.2     1  UNL1        0.2460
     11 O          62.3241   80.4649   14.8617 O.2     1  UNL1       -0.2729
     12 C          63.0786   81.9062   12.7407 C.3     1  UNL1        0.1386
     13 C          62.9179   82.1805   14.2066 C.3     1  UNL1        0.0535
     14 C          63.2849   83.6139   14.4530 C.ar    1  UNL1       -0.0239
     15 C          63.3164   84.4412   15.7038 C.ar    1  UNL1       -0.0032
     16 C          63.7353   85.8801   15.6409 C.ar    1  UNL1        0.0143
     17 C          64.1228   86.4917   14.3272 C.ar    1  UNL1        0.0500
     18 C          64.0913   85.6644   13.0764 C.ar    1  UNL1        0.0102
     19 C          63.6724   84.2255   13.1393 C.ar    1  UNL1       -0.0227
     20 C          63.5449   83.1701   12.0811 C.3     1  UNL1        0.0535
     21 H          62.1972   78.6562   12.4847 H       1  UNL1        0.1591
     22 C          64.3075   90.3807   15.0965 C.3     1  UNL1        0.1957
     23 N          64.4530   91.0622   13.7682 N.ar    1  UNL1       -0.2706
     24 C          65.4473   92.1334   13.4311 C.ar    1  UNL1        0.3369
     25 O          66.4708   92.7113   14.3630 O.2     1  UNL1       -0.2459
     26 N          65.2386   92.5254   11.9983 N.ar    1  UNL1       -0.2433
     27 C          64.1151   91.6963   11.4500 C.ar    1  UNL1        0.0854
     28 C          63.4715   91.6480   10.0960 C.ar    1  UNL1        0.0192
     29 C          62.3424   90.6955    9.8357 C.ar    1  UNL1        0.0016
     30 C          61.8569   89.7911   10.9296 C.ar    1  UNL1        0.0016
     31 C          62.5005   89.8394   12.2837 C.ar    1  UNL1        0.0188
     32 C          63.6296   90.7920   12.5439 C.ar    1  UNL1        0.0806
     33 C          66.0166   93.5639   11.2460 C.ar    1  UNL1        0.1511
     34 C          66.9272   93.1541   10.1267 C.ar    1  UNL1        0.0375
     35 C          67.7052   94.1927    9.3744 C.ar    1  UNL1        0.0047
     36 C          67.5726   95.6411    9.7413 C.ar    1  UNL1        0.0208
     37 C          66.6620   96.0509   10.8606 C.ar    1  UNL1        0.1005
     38 N          65.8840   95.0123   11.6130 N.ar    1  UNL1       -0.2263
@<TRIPOS>BOND
     1     5     6    1
     2     6     7   am
     3     7     8    2
     4     7     9   am
     5     9    10   am
     6    10    11    2
     7    10    12    1
     8    12    13    1
     9    13    14    1
    10    14    15   ar
    11    15    16   ar
    12    16    17   ar
    13    17     1    1
    14     1     2   am
    15     2     3    2
    16     2    22    1
    17    22    23    1
    18    23    24   ar
    19    24    25    2
    20    24    26   ar
    21    26    33    1
    22    33    34   ar
    23    34    35   ar
    24    35    36   ar
    25    36    37   ar
    26    37    38   ar
    27    26    27   ar
    28    27    28   ar
    29    28    29   ar
    30    29    30   ar
    31    30    31   ar
    32    31    32   ar
    33    17    18   ar
    34    18    19   ar
    35    19    20    1
    36    12     6    1
    37    19    14   ar
    38    20    12    1
    39    32    23   ar
    40    38    33   ar
    41    32    27   ar
    42     9    21    1
    43     1     4    1
@<TRIPOS>MOLECULE
*****
 38 43 0 0 0
SMALL
GASTEIGER

@<TRIPOS>ATOM
      1 N          62.3030   88.4613   11.5341 N.am    1  UNL1       -0.2823
      2 C          63.0385   89.0803   12.6855 C.2     1  UNL1        0.2493
      3 O          63.9276   88.2353   13.5490 O.2     1  UNL1       -0.2727
      4 H          61.7195   89.0159   10.9674 H       1  UNL1        0.1549
      5 C          62.3940   82.5490   14.7293 C.3     1  UNL1        0.1168
      6 N          62.6104   81.6641   13.5376 N.am    1  UNL1       -0.2567
      7 C          62.7288   80.1690   13.5596 C.2     1  UNL1        0.3100
      8 O          62.6517   79.2963   14.7771 O.2     1  UNL1       -0.2522
      9 N          62.9380   79.6998   12.1503 N.am    1  UNL1       -0.2382
     10 C          62.9488   80.9050   11.2573 C.2     1  UNL1        0.2460
     11 O          63.1303   80.8975    9.7683 O.2     1  UNL1       -0.2729
     12 C          62.7463   82.1191   12.1147 C.3     1  UNL1        0.1386
     13 C          62.8823   82.5740   10.6918 C.3     1  UNL1        0.0535
     14 C          62.7638   84.0691   10.6698 C.ar    1  UNL1       -0.0239
     15 C          62.8194   85.0640    9.5486 C.ar    1  UNL1       -0.0032
     16 C          62.6658   86.5280    9.8367 C.ar    1  UNL1        0.0143
     17 C          62.4566   86.9972   11.2460 C.ar    1  UNL1        0.0500
     18 C          62.4010   86.0023   12.3672 C.ar    1  UNL1        0.0102
     19 C          62.5546   84.5383   12.0791 C.ar    1  UNL1       -0.0227
     20 C          62.5438   83.3331   12.9721 C.3     1  UNL1        0.0535
     21 H          63.0488   78.7650   11.8620 H       1  UNL1        0.1591
     22 C          62.8849   90.5444   12.9736 C.3     1  UNL1        0.1957
     23 N          64.0281   91.4822   12.7219 N.ar    1  UNL1       -0.2706
     24 C          64.3798   92.1106   11.4061 C.ar    1  UNL1        0.3369
     25 O          63.6499   91.9114   10.1108 O.2     1  UNL1       -0.2459
     26 N          65.5894   92.9732   11.6128 N.ar    1  UNL1       -0.2433
     27 C          65.9853   92.8778   13.0565 C.ar    1  UNL1        0.0854
     28 C          67.0999   93.5110   13.8356 C.ar    1  UNL1        0.0192
     29 C          67.2495   93.2229   15.2999 C.ar    1  UNL1        0.0016
     30 C          66.2845   92.3014   15.9855 C.ar    1  UNL1        0.0016
     31 C          65.1699   91.6682   15.2064 C.ar    1  UNL1        0.0188
     32 C          65.0204   91.9564   13.7420 C.ar    1  UNL1        0.0806
     33 C          66.2816   93.7879   10.5607 C.ar    1  UNL1        0.1511
     34 C          67.4044   93.1891    9.7664 C.ar    1  UNL1        0.0375
     35 C          68.0965   94.0039    8.7143 C.ar    1  UNL1        0.0047
     36 C          67.6660   95.4175    8.4564 C.ar    1  UNL1        0.0208
     37 C          66.5432   96.0163    9.2507 C.ar    1  UNL1        0.1005
     38 N          65.8510   95.2015   10.3028 N.ar    1  UNL1       -0.2263
@<TRIPOS>BOND
     1     5     6    1
     2     6     7   am
     3     7     8    2
     4     7     9   am
     5     9    10   am
     6    10    11    2
     7    10    12    1
     8    12    13    1
     9    13    14    1
    10    14    15   ar
    11    15    16   ar
    12    16    17   ar
    13    17     1    1
    14     1     2   am
    15     2     3    2
    16     2    22    1
    17    22    23    1
    18    23    24   ar
    19    24    25    2
    20    24    26   ar
    21    26    33    1
    22    33    34   ar
    23    34    35   ar
    24    35    36   ar
    25    36    37   ar
    26    37    38   ar
    27    26    27   ar
    28    27    28   ar
    29    28    29   ar
    30    29    30   ar
    31    30    31   ar
    32    31    32   ar
    33    17    18   ar
    34    18    19   ar
    35    19    20    1
    36    12     6    1
    37    19    14   ar
    38    20    12    1
    39    32    23   ar
    40    38    33   ar
    41    32    27   ar
    42     9    21    1
    43     1     4    1
@<TRIPOS>MOLECULE
*****
 38 43 0 0 0
SMALL
GASTEIGER

@<TRIPOS>ATOM
      1 N          58.8002   88.9874    6.8761 N.am    1  UNL1       -0.2823
      2 C          59.5223   88.9972    8.1908 C.2     1  UNL1        0.2493
      3 O          60.4908   90.0983    8.5064 O.2     1  UNL1       -0.2727
      4 H          58.1646   88.2647    6.6689 H       1  UNL1        0.1549
      5 C          63.7089   91.4101    2.9765 C.3     1  UNL1        0.1168
      6 N          62.9440   92.5331    2.3411 N.am    1  UNL1       -0.2567
      7 C          63.4795   93.5038    1.3305 C.2     1  UNL1        0.3100
      8 O          64.8739   93.5218    0.7780 O.2     1  UNL1       -0.2522
      9 N          62.3757   94.4532    0.9696 N.am    1  UNL1       -0.2382
     10 C          61.1581   94.0693    1.7570 C.2     1  UNL1        0.2460
     11 O          59.8236   94.7523    1.7058 O.2     1  UNL1       -0.2729
     12 C          61.5093   92.8827    2.6047 C.3     1  UNL1        0.1386
     13 C          60.0746   93.2322    2.8683 C.3     1  UNL1        0.0535
     14 C          59.5391   92.2616    3.8788 C.ar    1  UNL1       -0.0239
     15 C          58.1891   92.1197    4.5169 C.ar    1  UNL1       -0.0032
     16 C          57.9428   91.0283    5.5160 C.ar    1  UNL1        0.0143
     17 C          59.0466   90.0789    5.8770 C.ar    1  UNL1        0.0500
     18 C          60.3966   90.2208    5.2388 C.ar    1  UNL1        0.0102
     19 C          60.6429   91.3122    4.2398 C.ar    1  UNL1       -0.0227
     20 C          61.8605   91.6960    3.4523 C.3     1  UNL1        0.0535
     21 H          62.4393   95.1976    0.3284 H       1  UNL1        0.1591
     22 C          59.2760   87.9057    9.1899 C.3     1  UNL1        0.1957
     23 N          60.4299   87.1317    9.7549 N.ar    1  UNL1       -0.2706
     24 C          60.9062   87.1709   11.1767 C.ar    1  UNL1        0.3369
     25 O          60.3122   87.9911   12.2832 O.2     1  UNL1       -0.2459
     26 N          62.0809   86.2460   11.2978 N.ar    1  UNL1       -0.2433
     27 C          62.3305   85.6351    9.9507 C.ar    1  UNL1        0.0854
     28 C          63.3551   84.6510    9.4692 C.ar    1  UNL1        0.0192
     29 C          63.3595   84.2144    8.0342 C.ar    1  UNL1        0.0016
     30 C          62.3392   84.7618    7.0806 C.ar    1  UNL1        0.0016
     31 C          61.3145   85.7459    7.5621 C.ar    1  UNL1        0.0188
     32 C          61.3102   86.1825    8.9972 C.ar    1  UNL1        0.0806
     33 C          62.8677   85.9788   12.5466 C.ar    1  UNL1        0.1511
     34 C          62.9618   84.5838   13.0897 C.ar    1  UNL1        0.0375
     35 C          63.7486   84.3166   14.3385 C.ar    1  UNL1        0.0047
     36 C          64.4413   85.4445   15.0442 C.ar    1  UNL1        0.0208
     37 C          64.3472   86.8396   14.5011 C.ar    1  UNL1        0.1005
     38 N          63.5604   87.1067   13.2523 N.ar    1  UNL1       -0.2263
@<TRIPOS>BOND
     1     5     6    1
     2     6     7   am
     3     7     8    2
     4     7     9   am
     5     9    10   am
     6    10    11    2
     7    10    12    1
     8    12    13    1
     9    13    14    1
    10    14    15   ar
    11    15    16   ar
    12    16    17   ar
    13    17     1    1
    14     1     2   am
    15     2     3    2
    16     2    22    1
    17    22    23    1
    18    23    24   ar
    19    24    25    2
    20    24    26   ar
    21    26    33    1
    22    33    34   ar
    23    34    35   ar
    24    35    36   ar
    25    36    37   ar
    26    37    38   ar
    27    26    27   ar
    28    27    28   ar
    29    28    29   ar
    30    29    30   ar
    31    30    31   ar
    32    31    32   ar
    33    17    18   ar
    34    18    19   ar
    35    19    20    1
    36    12     6    1
    37    19    14   ar
    38    20    12    1
    39    32    23   ar
    40    38    33   ar
    41    32    27   ar
    42     9    21    1
    43     1     4    1
@<TRIPOS>MOLECULE
*****
 38 43 0 0 0
SMALL
GASTEIGER

@<TRIPOS>ATOM
      1 N          60.2350   90.0701    5.8559 N.am    1  UNL1       -0.2823
      2 C          58.9091   89.6279    6.4002 C.2     1  UNL1        0.2493
      3 O          57.6443   90.2597    5.8991 O.2     1  UNL1       -0.2727
      4 H          61.0651   89.6554    6.1848 H       1  UNL1        0.1549
      5 C          64.5817   92.8381    1.5412 C.3     1  UNL1        0.1168
      6 N          63.6615   93.8535    0.9311 N.am    1  UNL1       -0.2567
      7 C          64.0215   94.8364   -0.1433 C.2     1  UNL1        0.3100
      8 O          65.3646   94.9765   -0.7961 O.2     1  UNL1       -0.2522
      9 N          62.8023   95.6547   -0.4502 N.am    1  UNL1       -0.2382
     10 C          61.6890   95.1774    0.4345 C.2     1  UNL1        0.2460
     11 O          60.2902   95.7184    0.4609 O.2     1  UNL1       -0.2729
     12 C          62.2200   94.0642    1.2882 C.3     1  UNL1        0.1386
     13 C          60.7785   94.2749    1.6453 C.3     1  UNL1        0.0535
     14 C          60.4186   93.2919    2.7197 C.ar    1  UNL1       -0.0239
     15 C          59.1383   93.0362    3.4582 C.ar    1  UNL1       -0.0032
     16 C          59.0771   91.9623    4.5036 C.ar    1  UNL1        0.0143
     17 C          60.2962   91.1440    4.8105 C.ar    1  UNL1        0.0500
     18 C          61.5765   91.3997    4.0720 C.ar    1  UNL1        0.0102
     19 C          61.6377   92.4737    3.0266 C.ar    1  UNL1       -0.0227
     20 C          62.7510   92.9510    2.1419 C.3     1  UNL1        0.0535
     21 H          62.7432   96.3780   -1.1154 H       1  UNL1        0.1591
     22 C          58.8478   88.5539    7.4457 C.3     1  UNL1        0.1957
     23 N          60.0391   88.2869    8.3172 N.ar    1  UNL1       -0.2706
     24 C          60.5343   89.1660    9.4271 C.ar    1  UNL1        0.3369
     25 O          59.9253   90.4665    9.8604 O.2     1  UNL1       -0.2459
     26 N          61.7455   88.5163   10.0278 N.ar    1  UNL1       -0.2433
     27 C          61.9989   87.2356    9.2890 C.ar    1  UNL1        0.0854
     28 C          63.0537   86.1802    9.4423 C.ar    1  UNL1        0.0192
     29 C          63.0539   84.9830    8.5386 C.ar    1  UNL1        0.0016
     30 C          61.9992   84.8412    7.4814 C.ar    1  UNL1        0.0016
     31 C          60.9443   85.8967    7.3280 C.ar    1  UNL1        0.0188
     32 C          60.9442   87.0938    8.2318 C.ar    1  UNL1        0.0806
     33 C          62.5604   89.0530   11.1670 C.ar    1  UNL1        0.1511
     34 C          62.9883   90.4906   11.1712 C.ar    1  UNL1        0.0375
     35 C          63.8031   91.0273   12.3105 C.ar    1  UNL1        0.0047
     36 C          64.1900   90.1263   13.4456 C.ar    1  UNL1        0.0208
     37 C          63.7621   88.6887   13.4415 C.ar    1  UNL1        0.1005
     38 N          62.9473   88.1520   12.3022 N.ar    1  UNL1       -0.2263
@<TRIPOS>BOND
     1     5     6    1
     2     6     7   am
     3     7     8    2
     4     7     9   am
     5     9    10   am
     6    10    11    2
     7    10    12    1
     8    12    13    1
     9    13    14    1
    10    14    15   ar
    11    15    16   ar
    12    16    17   ar
    13    17     1    1
    14     1     2   am
    15     2     3    2
    16     2    22    1
    17    22    23    1
    18    23    24   ar
    19    24    25    2
    20    24    26   ar
    21    26    33    1
    22    33    34   ar
    23    34    35   ar
    24    35    36   ar
    25    36    37   ar
    26    37    38   ar
    27    26    27   ar
    28    27    28   ar
    29    28    29   ar
    30    29    30   ar
    31    30    31   ar
    32    31    32   ar
    33    17    18   ar
    34    18    19   ar
    35    19    20    1
    36    12     6    1
    37    19    14   ar
    38    20    12    1
    39    32    23   ar
    40    38    33   ar
    41    32    27   ar
    42     9    21    1
    43     1     4    1
@<TRIPOS>MOLECULE
*****
 38 43 0 0 0
SMALL
GASTEIGER

@<TRIPOS>ATOM
      1 N          59.1647   88.9999    7.2962 N.am    1  UNL1       -0.2823
      2 C          60.1160   89.0666    8.4541 C.2     1  UNL1        0.2493
      3 O          61.1585   90.1438    8.5072 O.2     1  UNL1       -0.2727
      4 H          58.4805   88.2929    7.2614 H       1  UNL1        0.1549
      5 C          63.6384   91.5293    2.9649 C.3     1  UNL1        0.1168
      6 N          62.7351   92.5022    2.2668 N.am    1  UNL1       -0.2567
      7 C          63.1261   93.4217    1.1479 C.2     1  UNL1        0.3100
      8 O          64.4890   93.5296    0.5308 O.2     1  UNL1       -0.2522
      9 N          61.9148   94.2142    0.7545 N.am    1  UNL1       -0.2382
     10 C          60.7753   93.7846    1.6303 C.2     1  UNL1        0.2460
     11 O          59.3747   94.3192    1.5802 O.2     1  UNL1       -0.2729
     12 C          61.2822   92.7265    2.5649 C.3     1  UNL1        0.1386
     13 C          59.8294   92.9508    2.8630 C.3     1  UNL1        0.0535
     14 C          59.4384   92.0314    3.9818 C.ar    1  UNL1       -0.0239
     15 C          58.1359   91.8135    4.6932 C.ar    1  UNL1       -0.0032
     16 C          58.0448   90.8030    5.7980 C.ar    1  UNL1        0.0143
     17 C          59.2560   90.0104    6.1914 C.ar    1  UNL1        0.0500
     18 C          60.5584   90.2284    5.4800 C.ar    1  UNL1        0.0102
     19 C          60.6496   91.2388    4.3752 C.ar    1  UNL1       -0.0227
     20 C          61.7892   91.6685    3.4995 C.3     1  UNL1        0.0535
     21 H          61.8748   94.8966    0.0460 H       1  UNL1        0.1591
     22 C          60.0247   88.0561    9.5589 C.3     1  UNL1        0.1957
     23 N          61.0502   88.0470   10.6535 N.ar    1  UNL1       -0.2706
     24 C          61.5169   89.2396   11.4345 C.ar    1  UNL1        0.3369
     25 O          61.0400   90.6507   11.2579 O.2     1  UNL1       -0.2459
     26 N          62.5442   88.7733   12.4230 N.ar    1  UNL1       -0.2433
     27 C          62.7124   87.2925   12.2530 C.ar    1  UNL1        0.0854
     28 C          63.5871   86.2948   12.9527 C.ar    1  UNL1        0.0192
     29 C          63.5385   84.8483   12.5589 C.ar    1  UNL1        0.0016
     30 C          62.6152   84.3993   11.4652 C.ar    1  UNL1        0.0016
     31 C          61.7405   85.3971   10.7655 C.ar    1  UNL1        0.0188
     32 C          61.7891   86.8436   11.1594 C.ar    1  UNL1        0.0806
     33 C          63.2749   89.6363   13.4085 C.ar    1  UNL1        0.1511
     34 C          64.3912   90.5244   12.9446 C.ar    1  UNL1        0.0375
     35 C          65.1219   91.3874   13.9301 C.ar    1  UNL1        0.0047
     36 C          64.7364   91.3623   15.3795 C.ar    1  UNL1        0.0208
     37 C          63.6202   90.4742   15.8434 C.ar    1  UNL1        0.1005
     38 N          62.8894   89.6112   14.8579 N.ar    1  UNL1       -0.2263
@<TRIPOS>BOND
     1     5     6    1
     2     6     7   am
     3     7     8    2
     4     7     9   am
     5     9    10   am
     6    10    11    2
     7    10    12    1
     8    12    13    1
     9    13    14    1
    10    14    15   ar
    11    15    16   ar
    12    16    17   ar
    13    17     1    1
    14     1     2   am
    15     2     3    2
    16     2    22    1
    17    22    23    1
    18    23    24   ar
    19    24    25    2
    20    24    26   ar
    21    26    33    1
    22    33    34   ar
    23    34    35   ar
    24    35    36   ar
    25    36    37   ar
    26    37    38   ar
    27    26    27   ar
    28    27    28   ar
    29    28    29   ar
    30    29    30   ar
    31    30    31   ar
    32    31    32   ar
    33    17    18   ar
    34    18    19   ar
    35    19    20    1
    36    12     6    1
    37    19    14   ar
    38    20    12    1
    39    32    23   ar
    40    38    33   ar
    41    32    27   ar
    42     9    21    1
    43     1     4    1
@<TRIPOS>MOLECULE
*****
 38 43 0 0 0
SMALL
GASTEIGER

@<TRIPOS>ATOM
      1 N          58.8605   89.2424    6.9643 N.am    1  UNL1       -0.2823
      2 C          59.7128   89.2274    8.1985 C.2     1  UNL1        0.2493
      3 O          60.8198   90.2270    8.3577 O.2     1  UNL1       -0.2727
      4 H          58.1340   88.5863    6.8598 H       1  UNL1        0.1549
      5 C          63.7941   91.3552    2.9186 C.3     1  UNL1        0.1168
      6 N          63.0363   92.4318    2.1999 N.am    1  UNL1       -0.2567
      7 C          63.5796   93.3240    1.1234 C.2     1  UNL1        0.3100
      8 O          64.9762   93.2963    0.5768 O.2     1  UNL1       -0.2522
      9 N          62.4812   94.2488    0.6896 N.am    1  UNL1       -0.2382
     10 C          61.2590   93.9281    1.4979 C.2     1  UNL1        0.2460
     11 O          59.9275   94.6107    1.3915 O.2     1  UNL1       -0.2729
     12 C          61.6020   92.8052    2.4313 C.3     1  UNL1        0.1386
     13 C          60.1678   93.1785    2.6628 C.3     1  UNL1        0.0535
     14 C          59.6244   92.2863    3.7392 C.ar    1  UNL1       -0.0239
     15 C          58.2714   92.1965    4.3804 C.ar    1  UNL1       -0.0032
     16 C          58.0168   91.1819    5.4554 C.ar    1  UNL1        0.0143
     17 C          59.1152   90.2571    5.8892 C.ar    1  UNL1        0.0500
     18 C          60.4682   90.3469    5.2481 C.ar    1  UNL1        0.0102
     19 C          60.7229   91.3615    4.1731 C.ar    1  UNL1       -0.0227
     20 C          61.9451   91.6822    3.3647 C.3     1  UNL1        0.0535
     21 H          62.5503   94.9442   -0.0039 H       1  UNL1        0.1591
     22 C          59.4581   88.2127    9.2736 C.3     1  UNL1        0.1957
     23 N          60.6040   87.6529   10.0632 N.ar    1  UNL1       -0.2706
     24 C          61.1218   86.2470    9.9899 C.ar    1  UNL1        0.3369
     25 O          60.5845   85.1540    9.1143 O.2     1  UNL1       -0.2459
     26 N          62.2711   86.1259   10.9461 N.ar    1  UNL1       -0.2433
     27 C          62.4637   87.4570   11.6103 C.ar    1  UNL1        0.0854
     28 C          63.4442   87.9317   12.6415 C.ar    1  UNL1        0.0192
     29 C          63.3944   89.3500   13.1270 C.ar    1  UNL1        0.0016
     30 C          62.3641   90.2938   12.5813 C.ar    1  UNL1        0.0016
     31 C          61.3836   89.8191   11.5500 C.ar    1  UNL1        0.0188
     32 C          61.4334   88.4007   11.0646 C.ar    1  UNL1        0.0806
     33 C          63.0850   84.8906   11.1945 C.ar    1  UNL1        0.1511
     34 C          63.5883   84.0789   10.0379 C.ar    1  UNL1        0.0375
     35 C          64.4021   82.8436   10.2863 C.ar    1  UNL1        0.0047
     36 C          64.7127   82.4201   11.6914 C.ar    1  UNL1        0.0208
     37 C          64.2093   83.2317   12.8480 C.ar    1  UNL1        0.1005
     38 N          63.3955   84.4670   12.5996 N.ar    1  UNL1       -0.2263
@<TRIPOS>BOND
     1     5     6    1
     2     6     7   am
     3     7     8    2
     4     7     9   am
     5     9    10   am
     6    10    11    2
     7    10    12    1
     8    12    13    1
     9    13    14    1
    10    14    15   ar
    11    15    16   ar
    12    16    17   ar
    13    17     1    1
    14     1     2   am
    15     2     3    2
    16     2    22    1
    17    22    23    1
    18    23    24   ar
    19    24    25    2
    20    24    26   ar
    21    26    33    1
    22    33    34   ar
    23    34    35   ar
    24    35    36   ar
    25    36    37   ar
    26    37    38   ar
    27    26    27   ar
    28    27    28   ar
    29    28    29   ar
    30    29    30   ar
    31    30    31   ar
    32    31    32   ar
    33    17    18   ar
    34    18    19   ar
    35    19    20    1
    36    12     6    1
    37    19    14   ar
    38    20    12    1
    39    32    23   ar
    40    38    33   ar
    41    32    27   ar
    42     9    21    1
    43     1     4    1
