@<TRIPOS>MOLECULE
*****
 31 34 0 0 0
SMALL
GASTEIGER

@<TRIPOS>ATOM
      1 C          61.8716   86.0240    9.4946 C.2     1  UNL1        0.2250
      2 O          61.5480   85.8772    8.0374 O.2     1  UNL1       -0.2750
      3 N          62.8751   85.1117   10.1356 N.am    1  UNL1       -0.3026
      4 H          63.0875   85.2080   11.0921 H       1  UNL1        0.1495
      5 C          61.1918   87.0829   10.3110 C.3     1  UNL1        0.1154
      6 C          61.4915   88.9381    9.6055 C.3     1  UNL1        0.0335
      7 C          61.9809   88.2431   10.8413 C.3     1  UNL1        0.1377
      8 C          62.6677   89.5486   11.1133 C.3     1  UNL1        0.0613
      9 C          63.4166   89.4178   12.4063 C.3     1  UNL1        0.1290
     10 C          64.1113   89.1398   13.7064 C.3     1  UNL1        0.0305
     11 C          64.9389   90.2077   14.3579 C.3     1  UNL1        0.0025
     12 C          65.0718   91.5537   13.7094 C.3     1  UNL1        0.0002
     13 C          64.3770   91.8318   12.4093 C.3     1  UNL1        0.0025
     14 C          63.5495   90.7638   11.7578 C.3     1  UNL1        0.0305
     15 O          63.1926   88.0314   12.9336 O.3     1  UNL1       -0.2256
     16 O          62.3053   87.3054   11.9663 O.3     1  UNL1       -0.2251
     17 C          63.5550   84.0527    9.3193 C.3     1  UNL1        0.1106
     18 C          64.3143   82.9529   10.0003 C.3     1  UNL1        0.1086
     19 N          64.6917   83.0857   11.4459 N.pl3   1  UNL1       -0.3312
     20 H          65.5909   83.4016   11.6929 H       1  UNL1        0.1469
     21 C          63.6992   82.7372   12.5153 C.ar    1  UNL1        0.0477
     22 C          62.8515   81.5072   12.3797 C.ar    1  UNL1        0.0350
     23 C          61.8590   81.1587   13.4490 C.ar    1  UNL1        0.1001
     24 N          61.7142   82.0403   14.6539 N.ar    1  UNL1       -0.2437
     25 C          62.5619   83.2703   14.7895 C.ar    1  UNL1        0.0833
     26 C          62.4171   84.1519   15.9945 C.ar    1  UNL1        0.0305
     27 C          63.2647   85.3819   16.1300 C.ar    1  UNL1        0.0592
     28 CL         63.1199   86.2635   17.3350 Cl      1  UNL1       -0.0822
     29 C          64.2573   85.7305   15.0607 C.ar    1  UNL1        0.0115
     30 C          64.4021   84.8489   13.8558 C.ar    1  UNL1        0.0036
     31 C          63.5544   83.6188   13.7202 C.ar    1  UNL1        0.0309
@<TRIPOS>BOND
     1     6     7    1
     2     7     5    1
     3     5     1    1
     4     1     2    2
     5     1     3   am
     6     3    17    1
     7    17    18    1
     8    18    19    1
     9    19    21    1
    10    21    22   ar
    11    22    23   ar
    12    23    24   ar
    13    24    25   ar
    14    25    26   ar
    15    26    27   ar
    16    27    28    1
    17    27    29   ar
    18    29    30   ar
    19    30    31   ar
    20     7     8    1
    21     8     9    1
    22     9    10    1
    23    10    11    1
    24    11    12    1
    25    12    13    1
    26    13    14    1
    27     9    15    1
    28    15    16    1
    29    16     7    1
    30    31    21   ar
    31    14     9    1
    32    31    25   ar
    33     3     4    1
    34    19    20    1
@<TRIPOS>MOLECULE
*****
 31 34 0 0 0
SMALL
GASTEIGER

@<TRIPOS>ATOM
      1 C          62.6031   85.8017   16.4417 C.2     1  UNL1        0.2250
      2 O          61.3242   86.0217   17.1941 O.2     1  UNL1       -0.2750
      3 N          63.5169   86.9578   16.1616 N.am    1  UNL1       -0.3026
      4 H          64.3563   86.8134   15.6678 H       1  UNL1        0.1495
      5 C          62.9683   84.4256   15.9696 C.3     1  UNL1        0.1154
      6 C          64.2045   83.1391   15.0496 C.3     1  UNL1        0.0335
      7 C          63.2692   84.1853   14.5199 C.3     1  UNL1        0.1377
      8 C          63.7657   83.7263   13.1809 C.3     1  UNL1        0.0613
      9 C          63.0743   84.5391   12.1267 C.3     1  UNL1        0.1290
     10 C          62.3087   85.4255   11.1896 C.3     1  UNL1        0.0305
     11 C          62.5064   85.2992    9.7080 C.3     1  UNL1        0.0025
     12 C          63.4697   84.2864    9.1636 C.3     1  UNL1        0.0002
     13 C          64.2353   83.4001   10.1007 C.3     1  UNL1        0.0025
     14 C          64.0376   83.5264   11.5822 C.3     1  UNL1        0.0305
     15 O          62.1505   85.5004   12.8141 O.3     1  UNL1       -0.2256
     16 O          62.2710   85.2818   14.2932 O.3     1  UNL1       -0.2251
     17 C          63.1517   88.3339   16.6337 C.3     1  UNL1        0.1106
     18 C          63.5471   89.5338   15.8251 C.3     1  UNL1        0.1086
     19 N          64.4923   89.3818   14.6704 N.pl3   1  UNL1       -0.3312
     20 H          65.3673   88.9506   14.8040 H       1  UNL1        0.1469
     21 C          64.1045   89.8866   13.3121 C.ar    1  UNL1        0.0477
     22 C          63.1192   89.1203   12.4804 C.ar    1  UNL1        0.0350
     23 C          62.7314   89.6252   11.1222 C.ar    1  UNL1        0.1001
     24 N          63.3289   90.8964   10.5958 N.ar    1  UNL1       -0.2437
     25 C          64.3142   91.6627   11.4276 C.ar    1  UNL1        0.0833
     26 C          64.9116   92.9339   10.9012 C.ar    1  UNL1        0.0305
     27 C          65.8969   93.7002   11.7330 C.ar    1  UNL1        0.0592
     28 CL         66.4944   94.9714   11.2066 Cl      1  UNL1       -0.0822
     29 C          66.2848   93.1954   13.0913 C.ar    1  UNL1        0.0115
     30 C          65.6873   91.9242   13.6176 C.ar    1  UNL1        0.0036
     31 C          64.7020   91.1578   12.7858 C.ar    1  UNL1        0.0309
@<TRIPOS>BOND
     1     6     7    1
     2     7     5    1
     3     5     1    1
     4     1     2    2
     5     1     3   am
     6     3    17    1
     7    17    18    1
     8    18    19    1
     9    19    21    1
    10    21    22   ar
    11    22    23   ar
    12    23    24   ar
    13    24    25   ar
    14    25    26   ar
    15    26    27   ar
    16    27    28    1
    17    27    29   ar
    18    29    30   ar
    19    30    31   ar
    20     7     8    1
    21     8     9    1
    22     9    10    1
    23    10    11    1
    24    11    12    1
    25    12    13    1
    26    13    14    1
    27     9    15    1
    28    15    16    1
    29    16     7    1
    30    31    21   ar
    31    14     9    1
    32    31    25   ar
    33     3     4    1
    34    19    20    1
@<TRIPOS>MOLECULE
*****
 31 34 0 0 0
SMALL
GASTEIGER

@<TRIPOS>ATOM
      1 C          62.5068   85.6389   16.2555 C.2     1  UNL1        0.2250
      2 O          61.2481   85.9004   17.0282 O.2     1  UNL1       -0.2750
      3 N          63.5057   86.7397   16.0543 N.am    1  UNL1       -0.3026
      4 H          64.3319   86.5680   15.5471 H       1  UNL1        0.1495
      5 C          62.7667   84.2766   15.6840 C.3     1  UNL1        0.1154
      6 C          63.9006   82.9683   14.6681 C.3     1  UNL1        0.0335
      7 C          63.0496   84.1192   14.2194 C.3     1  UNL1        0.1377
      8 C          63.5105   83.7211   12.8486 C.3     1  UNL1        0.0613
      9 C          62.8852   84.6589   11.8589 C.3     1  UNL1        0.1290
     10 C          62.1914   85.6671   10.9916 C.3     1  UNL1        0.0305
     11 C          62.3802   85.6332    9.5040 C.3     1  UNL1        0.0025
     12 C          63.2628   84.5911    8.8835 C.3     1  UNL1        0.0002
     13 C          63.9566   83.5829    9.7508 C.3     1  UNL1        0.0025
     14 C          63.7678   83.6167   11.2385 C.3     1  UNL1        0.0305
     15 O          62.0378   85.6365   12.6180 O.3     1  UNL1       -0.2256
     16 O          62.1395   85.3029   14.0770 O.3     1  UNL1       -0.2251
     17 C          63.2459   88.1020   16.6258 C.3     1  UNL1        0.1106
     18 C          63.5824   89.3267   15.8278 C.3     1  UNL1        0.1086
     19 N          62.6098   89.8519   14.8138 N.pl3   1  UNL1       -0.3312
     20 H          61.6441   89.8388   15.0050 H       1  UNL1        0.1469
     21 C          63.1085   90.3969   13.5083 C.ar    1  UNL1        0.0477
     22 C          64.3423   91.2492   13.4737 C.ar    1  UNL1        0.0350
     23 C          64.8410   91.7942   12.1683 C.ar    1  UNL1        0.1001
     24 N          64.1059   91.4869   10.8974 N.ar    1  UNL1       -0.2437
     25 C          62.8721   90.6345   10.9319 C.ar    1  UNL1        0.0833
     26 C          62.1370   90.3272    9.6610 C.ar    1  UNL1        0.0305
     27 C          60.9032   89.4748    9.6956 C.ar    1  UNL1        0.0592
     28 CL         60.1681   89.1675    8.4247 Cl      1  UNL1       -0.0822
     29 C          60.4045   88.9298   11.0011 C.ar    1  UNL1        0.0115
     30 C          61.1396   89.2372   12.2720 C.ar    1  UNL1        0.0036
     31 C          62.3734   90.0895   12.2374 C.ar    1  UNL1        0.0309
@<TRIPOS>BOND
     1     6     7    1
     2     7     5    1
     3     5     1    1
     4     1     2    2
     5     1     3   am
     6     3    17    1
     7    17    18    1
     8    18    19    1
     9    19    21    1
    10    21    22   ar
    11    22    23   ar
    12    23    24   ar
    13    24    25   ar
    14    25    26   ar
    15    26    27   ar
    16    27    28    1
    17    27    29   ar
    18    29    30   ar
    19    30    31   ar
    20     7     8    1
    21     8     9    1
    22     9    10    1
    23    10    11    1
    24    11    12    1
    25    12    13    1
    26    13    14    1
    27     9    15    1
    28    15    16    1
    29    16     7    1
    30    31    21   ar
    31    14     9    1
    32    31    25   ar
    33     3     4    1
    34    19    20    1
@<TRIPOS>MOLECULE
*****
 31 34 0 0 0
SMALL
GASTEIGER

@<TRIPOS>ATOM
      1 C          60.7251   88.5569   11.2498 C.2     1  UNL1        0.2250
      2 O          59.5409   89.0897   12.0005 O.2     1  UNL1       -0.2750
      3 N          62.0829   89.1561   11.4677 N.am    1  UNL1       -0.3026
      4 H          62.8602   88.8063   10.9750 H       1  UNL1        0.1495
      5 C          60.5516   87.4248   10.2810 C.3     1  UNL1        0.1154
      6 C          61.4706   86.3765    8.8368 C.3     1  UNL1        0.0335
      7 C          61.4781   86.2463   10.3311 C.3     1  UNL1        0.1377
      8 C          62.4031   85.0949   10.0686 C.3     1  UNL1        0.0613
      9 C          62.7886   84.4995   11.3903 C.3     1  UNL1        0.1290
     10 C          63.0834   84.0137   12.7785 C.3     1  UNL1        0.0305
     11 C          63.9954   82.8408   12.9848 C.3     1  UNL1        0.0025
     12 C          64.6127   82.1538   11.8029 C.3     1  UNL1        0.0002
     13 C          64.3179   82.6396   10.4147 C.3     1  UNL1        0.0025
     14 C          63.4058   83.8125   10.2084 C.3     1  UNL1        0.0305
     15 O          62.1019   85.2828   12.4697 O.3     1  UNL1       -0.2256
     16 O          61.2920   86.3625   11.8149 O.3     1  UNL1       -0.2251
     17 C          62.2563   90.2881   12.4365 C.3     1  UNL1        0.1106
     18 C          63.0648   90.0902   13.6843 C.3     1  UNL1        0.1086
     19 N          64.5632   90.1083   13.6179 N.pl3   1  UNL1       -0.3312
     20 H          65.0555   89.2885   13.3834 H       1  UNL1        0.1469
     21 C          65.3116   91.3753   13.9088 C.ar    1  UNL1        0.0477
     22 C          65.8377   91.6356   15.2891 C.ar    1  UNL1        0.0350
     23 C          66.5861   92.9026   15.5799 C.ar    1  UNL1        0.1001
     24 N          66.8083   93.9093   14.4904 N.ar    1  UNL1       -0.2437
     25 C          66.2823   93.6490   13.1100 C.ar    1  UNL1        0.0833
     26 C          66.5045   94.6558   12.0205 C.ar    1  UNL1        0.0305
     27 C          65.9785   94.3955   10.6401 C.ar    1  UNL1        0.0592
     28 CL         66.2007   95.4022    9.5506 Cl      1  UNL1       -0.0822
     29 C          65.2300   93.1284   10.3493 C.ar    1  UNL1        0.0115
     30 C          65.0078   92.1217   11.4388 C.ar    1  UNL1        0.0036
     31 C          65.5339   92.3820   12.8192 C.ar    1  UNL1        0.0309
@<TRIPOS>BOND
     1     6     7    1
     2     7     5    1
     3     5     1    1
     4     1     2    2
     5     1     3   am
     6     3    17    1
     7    17    18    1
     8    18    19    1
     9    19    21    1
    10    21    22   ar
    11    22    23   ar
    12    23    24   ar
    13    24    25   ar
    14    25    26   ar
    15    26    27   ar
    16    27    28    1
    17    27    29   ar
    18    29    30   ar
    19    30    31   ar
    20     7     8    1
    21     8     9    1
    22     9    10    1
    23    10    11    1
    24    11    12    1
    25    12    13    1
    26    13    14    1
    27     9    15    1
    28    15    16    1
    29    16     7    1
    30    31    21   ar
    31    14     9    1
    32    31    25   ar
    33     3     4    1
    34    19    20    1
@<TRIPOS>MOLECULE
*****
 31 34 0 0 0
SMALL
GASTEIGER

@<TRIPOS>ATOM
      1 C          62.9631   90.4132   12.5328 C.2     1  UNL1        0.2250
      2 O          64.2895   91.0883   12.3462 O.2     1  UNL1       -0.2750
      3 N          62.7925   89.3782   13.6052 N.am    1  UNL1       -0.3026
      4 H          61.9219   88.9352   13.7277 H       1  UNL1        0.1495
      5 C          61.8072   90.7730   11.6471 C.3     1  UNL1        0.1154
      6 C          59.9898   90.5860   10.8154 C.3     1  UNL1        0.0335
      7 C          61.2312   89.7503   10.7131 C.3     1  UNL1        0.1377
      8 C          60.3957   88.9023    9.8005 C.3     1  UNL1        0.0613
      9 C          61.2412   87.7563    9.3295 C.3     1  UNL1        0.1290
     10 C          62.2026   86.6709    8.9453 C.3     1  UNL1        0.0305
     11 C          61.7666   85.5772    8.0159 C.3     1  UNL1        0.0025
     12 C          60.3693   85.5689    7.4707 C.3     1  UNL1        0.0002
     13 C          59.4079   86.6544    7.8549 C.3     1  UNL1        0.0025
     14 C          59.8438   87.7481    8.7843 C.3     1  UNL1        0.0305
     15 O          62.5993   87.8960    9.9510 O.3     1  UNL1       -0.2256
     16 O          62.5931   89.1284   10.8062 O.3     1  UNL1       -0.2251
     17 C          63.9484   89.0185   14.4909 C.3     1  UNL1        0.1106
     18 C          64.4258   87.5982   14.5611 C.3     1  UNL1        0.1086
     19 N          63.9119   86.5849   13.5817 N.pl3   1  UNL1       -0.3312
     20 H          63.8433   86.8141   12.6267 H       1  UNL1        0.1469
     21 C          63.5026   85.2225   14.0575 C.ar    1  UNL1        0.0477
     22 C          63.1804   84.9991   15.5053 C.ar    1  UNL1        0.0350
     23 C          62.7711   83.6367   15.9809 C.ar    1  UNL1        0.1001
     24 N          62.6839   82.4977   15.0088 N.ar    1  UNL1       -0.2437
     25 C          63.0061   82.7211   13.5609 C.ar    1  UNL1        0.0833
     26 C          62.9189   81.5821   12.5888 C.ar    1  UNL1        0.0305
     27 C          63.2411   81.8055   11.1410 C.ar    1  UNL1        0.0592
     28 CL         63.1539   80.6665   10.1688 Cl      1  UNL1       -0.0822
     29 C          63.6504   83.1680   10.6652 C.ar    1  UNL1        0.0115
     30 C          63.7376   84.3070   11.6374 C.ar    1  UNL1        0.0036
     31 C          63.4154   84.0835   13.0853 C.ar    1  UNL1        0.0309
@<TRIPOS>BOND
     1     6     7    1
     2     7     5    1
     3     5     1    1
     4     1     2    2
     5     1     3   am
     6     3    17    1
     7    17    18    1
     8    18    19    1
     9    19    21    1
    10    21    22   ar
    11    22    23   ar
    12    23    24   ar
    13    24    25   ar
    14    25    26   ar
    15    26    27   ar
    16    27    28    1
    17    27    29   ar
    18    29    30   ar
    19    30    31   ar
    20     7     8    1
    21     8     9    1
    22     9    10    1
    23    10    11    1
    24    11    12    1
    25    12    13    1
    26    13    14    1
    27     9    15    1
    28    15    16    1
    29    16     7    1
    30    31    21   ar
    31    14     9    1
    32    31    25   ar
    33     3     4    1
    34    19    20    1
@<TRIPOS>MOLECULE
*****
 31 34 0 0 0
SMALL
GASTEIGER

@<TRIPOS>ATOM
      1 C          63.4581   85.2157   14.1132 C.2     1  UNL1        0.2250
      2 O          62.7693   84.8779   15.4021 O.2     1  UNL1       -0.2750
      3 N          64.2554   86.4811   13.9981 N.am    1  UNL1       -0.3026
      4 H          64.7075   86.7028   13.1521 H       1  UNL1        0.1495
      5 C          63.3496   84.2882   12.9393 C.3     1  UNL1        0.1154
      6 C          63.5735   83.6901   11.0363 C.3     1  UNL1        0.0335
      7 C          62.7373   84.7694   11.6573 C.3     1  UNL1        0.1377
      8 C          62.2998   85.0249   10.2455 C.3     1  UNL1        0.0613
      9 C          61.3212   86.1616   10.2620 C.3     1  UNL1        0.1290
     10 C          60.3628   87.3026   10.4341 C.3     1  UNL1        0.0305
     11 C          59.6727   87.8893    9.2385 C.3     1  UNL1        0.0025
     12 C          59.9410   87.3350    7.8707 C.3     1  UNL1        0.0002
     13 C          60.8994   86.1940    7.6986 C.3     1  UNL1        0.0025
     14 C          61.5895   85.6073    8.8942 C.3     1  UNL1        0.0305
     15 O          61.1539   86.6086   11.6840 O.3     1  UNL1       -0.2256
     16 O          62.0291   85.7482   12.5464 O.3     1  UNL1       -0.2251
     17 C          64.3639   87.4086   15.1719 C.3     1  UNL1        0.1106
     18 C          63.6599   88.7329   15.1490 C.3     1  UNL1        0.1086
     19 N          64.3431   89.9356   14.5686 N.pl3   1  UNL1       -0.3312
     20 H          64.9810   90.4503   15.1139 H       1  UNL1        0.1469
     21 C          64.0544   90.3540   13.1573 C.ar    1  UNL1        0.0477
     22 C          63.0855   89.5674   12.3252 C.ar    1  UNL1        0.0350
     23 C          62.7968   89.9858   10.9140 C.ar    1  UNL1        0.1001
     24 N          63.4771   91.1908   10.3349 N.ar    1  UNL1       -0.2437
     25 C          64.4460   91.9773   11.1670 C.ar    1  UNL1        0.0833
     26 C          65.1262   93.1823   10.5879 C.ar    1  UNL1        0.0305
     27 C          66.0952   93.9688   11.4200 C.ar    1  UNL1        0.0592
     28 CL         66.7754   95.1738   10.8410 Cl      1  UNL1       -0.0822
     29 C          66.3839   93.5504   12.8313 C.ar    1  UNL1        0.0115
     30 C          65.7036   92.3455   13.4104 C.ar    1  UNL1        0.0036
     31 C          64.7347   91.5589   12.5782 C.ar    1  UNL1        0.0309
@<TRIPOS>BOND
     1     6     7    1
     2     7     5    1
     3     5     1    1
     4     1     2    2
     5     1     3   am
     6     3    17    1
     7    17    18    1
     8    18    19    1
     9    19    21    1
    10    21    22   ar
    11    22    23   ar
    12    23    24   ar
    13    24    25   ar
    14    25    26   ar
    15    26    27   ar
    16    27    28    1
    17    27    29   ar
    18    29    30   ar
    19    30    31   ar
    20     7     8    1
    21     8     9    1
    22     9    10    1
    23    10    11    1
    24    11    12    1
    25    12    13    1
    26    13    14    1
    27     9    15    1
    28    15    16    1
    29    16     7    1
    30    31    21   ar
    31    14     9    1
    32    31    25   ar
    33     3     4    1
    34    19    20    1
@<TRIPOS>MOLECULE
*****
 31 34 0 0 0
SMALL
GASTEIGER

@<TRIPOS>ATOM
      1 C          60.7998   89.0311   10.1269 C.2     1  UNL1        0.2250
      2 O          59.8340   90.1437   10.4088 O.2     1  UNL1       -0.2750
      3 N          62.2655   89.3243   10.0004 N.am    1  UNL1       -0.3026
      4 H          62.8993   88.5940    9.8154 H       1  UNL1        0.1495
      5 C          60.2999   87.6254    9.9716 C.3     1  UNL1        0.1154
      6 C          61.0912   86.3793    8.6112 C.3     1  UNL1        0.0335
      7 C          61.2511   86.4727   10.0997 C.3     1  UNL1        0.1377
      8 C          62.1689   85.3005    9.9165 C.3     1  UNL1        0.0613
      9 C          62.6973   84.9104   11.2651 C.3     1  UNL1        0.1290
     10 C          63.1398   84.6380   12.6722 C.3     1  UNL1        0.0305
     11 C          64.0922   83.5140   12.9547 C.3     1  UNL1        0.0025
     12 C          64.6020   82.6625   11.8300 C.3     1  UNL1        0.0002
     13 C          64.1595   82.9349   10.4228 C.3     1  UNL1        0.0025
     14 C          63.2071   84.0588   10.1404 C.3     1  UNL1        0.0305
     15 O          62.1061   85.8415   12.2817 O.3     1  UNL1       -0.2256
     16 O          61.2123   86.8071   11.5614 O.3     1  UNL1       -0.2251
     17 C          62.7653   90.7300   10.1557 C.3     1  UNL1        0.1106
     18 C          63.2529   91.2094   11.4908 C.3     1  UNL1        0.1086
     19 N          63.9063   90.2489   12.4397 N.pl3   1  UNL1       -0.3312
     20 H          64.2517   89.3883   12.1090 H       1  UNL1        0.1469
     21 C          64.0335   90.5996   13.8926 C.ar    1  UNL1        0.0477
     22 C          63.0370   90.0718   14.8816 C.ar    1  UNL1        0.0350
     23 C          63.1642   90.4225   16.3345 C.ar    1  UNL1        0.1001
     24 N          64.2881   91.3010   16.7983 N.ar    1  UNL1       -0.2437
     25 C          65.2847   91.8288   15.8093 C.ar    1  UNL1        0.0833
     26 C          66.4085   92.7074   16.2731 C.ar    1  UNL1        0.0305
     27 C          67.4051   93.2352   15.2841 C.ar    1  UNL1        0.0592
     28 CL         68.5290   94.1137   15.7479 Cl      1  UNL1       -0.0822
     29 C          67.2779   92.8845   13.8312 C.ar    1  UNL1        0.0115
     30 C          66.1540   92.0059   13.3674 C.ar    1  UNL1        0.0036
     31 C          65.1574   91.4781   14.3564 C.ar    1  UNL1        0.0309
@<TRIPOS>BOND
     1     6     7    1
     2     7     5    1
     3     5     1    1
     4     1     2    2
     5     1     3   am
     6     3    17    1
     7    17    18    1
     8    18    19    1
     9    19    21    1
    10    21    22   ar
    11    22    23   ar
    12    23    24   ar
    13    24    25   ar
    14    25    26   ar
    15    26    27   ar
    16    27    28    1
    17    27    29   ar
    18    29    30   ar
    19    30    31   ar
    20     7     8    1
    21     8     9    1
    22     9    10    1
    23    10    11    1
    24    11    12    1
    25    12    13    1
    26    13    14    1
    27     9    15    1
    28    15    16    1
    29    16     7    1
    30    31    21   ar
    31    14     9    1
    32    31    25   ar
    33     3     4    1
    34    19    20    1
@<TRIPOS>MOLECULE
*****
 31 34 0 0 0
SMALL
GASTEIGER

@<TRIPOS>ATOM
      1 C          64.2272   87.3773   14.4244 C.2     1  UNL1        0.2250
      2 O          64.6766   88.7300   14.8915 O.2     1  UNL1       -0.2750
      3 N          63.5122   87.2359   13.1133 N.am    1  UNL1       -0.3026
      4 H          63.2172   86.3480   12.8067 H       1  UNL1        0.1495
      5 C          64.4928   86.1660   15.2683 C.3     1  UNL1        0.1154
      6 C          62.9508   85.2819   16.2012 C.3     1  UNL1        0.0335
      7 C          63.7559   84.8877   14.9985 C.3     1  UNL1        0.1377
      8 C          62.8506   83.6918   14.9801 C.3     1  UNL1        0.0613
      9 C          63.2502   82.8257   13.8224 C.3     1  UNL1        0.1290
     10 C          63.7608   82.0664   12.6338 C.3     1  UNL1        0.0305
     11 C          63.1206   80.7677   12.2420 C.3     1  UNL1        0.0025
     12 C          61.9699   80.2283   13.0388 C.3     1  UNL1        0.0002
     13 C          61.4594   80.9876   14.2274 C.3     1  UNL1        0.0025
     14 C          62.0996   82.2863   14.6193 C.3     1  UNL1        0.0305
     15 O          64.4025   83.4863   13.1253 O.3     1  UNL1       -0.2256
     16 O          64.7150   84.7608   13.8522 O.3     1  UNL1       -0.2251
     17 C          63.2466   88.4472   12.2694 C.3     1  UNL1        0.1106
     18 C          62.3763   89.5505   12.7939 C.3     1  UNL1        0.1086
     19 N          62.9964   90.7420   13.4616 N.pl3   1  UNL1       -0.3312
     20 H          62.6557   91.0514   14.3319 H       1  UNL1        0.1469
     21 C          64.1359   91.4620   12.8033 C.ar    1  UNL1        0.0477
     22 C          64.1622   91.6191   11.3118 C.ar    1  UNL1        0.0350
     23 C          65.3016   92.3391   10.6535 C.ar    1  UNL1        0.1001
     24 N          66.4147   92.9020   11.4867 N.ar    1  UNL1       -0.2437
     25 C          66.3883   92.7450   12.9782 C.ar    1  UNL1        0.0833
     26 C          67.5013   93.3079   13.8115 C.ar    1  UNL1        0.0305
     27 C          67.4749   93.1509   15.3029 C.ar    1  UNL1        0.0592
     28 CL         68.5879   93.7138   16.1362 Cl      1  UNL1       -0.0822
     29 C          66.3355   92.4309   15.9613 C.ar    1  UNL1        0.0115
     30 C          65.2225   91.8679   15.1281 C.ar    1  UNL1        0.0036
     31 C          65.2489   92.0250   13.6365 C.ar    1  UNL1        0.0309
@<TRIPOS>BOND
     1     6     7    1
     2     7     5    1
     3     5     1    1
     4     1     2    2
     5     1     3   am
     6     3    17    1
     7    17    18    1
     8    18    19    1
     9    19    21    1
    10    21    22   ar
    11    22    23   ar
    12    23    24   ar
    13    24    25   ar
    14    25    26   ar
    15    26    27   ar
    16    27    28    1
    17    27    29   ar
    18    29    30   ar
    19    30    31   ar
    20     7     8    1
    21     8     9    1
    22     9    10    1
    23    10    11    1
    24    11    12    1
    25    12    13    1
    26    13    14    1
    27     9    15    1
    28    15    16    1
    29    16     7    1
    30    31    21   ar
    31    14     9    1
    32    31    25   ar
    33     3     4    1
    34    19    20    1
@<TRIPOS>MOLECULE
*****
 31 34 0 0 0
SMALL
GASTEIGER

@<TRIPOS>ATOM
      1 C          60.7107   88.9889   10.3576 C.2     1  UNL1        0.2250
      2 O          59.6845   90.0712   10.5177 O.2     1  UNL1       -0.2750
      3 N          62.1616   89.2907   10.5902 N.am    1  UNL1       -0.3026
      4 H          62.8351   88.5804   10.4851 H       1  UNL1        0.1495
      5 C          60.2861   87.6049    9.9650 C.3     1  UNL1        0.1154
      6 C          61.2028   86.4680    8.5879 C.3     1  UNL1        0.0335
      7 C          61.2497   86.4619   10.0871 C.3     1  UNL1        0.1377
      8 C          62.2035   85.3201    9.8957 C.3     1  UNL1        0.0613
      9 C          62.6384   84.8472   11.2511 C.3     1  UNL1        0.1290
     10 C          62.9808   84.4864   12.6663 C.3     1  UNL1        0.0305
     11 C          63.9334   83.3615   12.9439 C.3     1  UNL1        0.0025
     12 C          64.5436   82.5974   11.8064 C.3     1  UNL1        0.0002
     13 C          64.2012   82.9583   10.3913 C.3     1  UNL1        0.0025
     14 C          63.2485   84.0832   10.1137 C.3     1  UNL1        0.0305
     15 O          61.9534   85.6967   12.2803 O.3     1  UNL1       -0.2256
     16 O          61.0951   86.6947   11.5608 O.3     1  UNL1       -0.2251
     17 C          62.5862   90.6748   10.9828 C.3     1  UNL1        0.1106
     18 C          63.5438   91.4392   10.1177 C.3     1  UNL1        0.1086
     19 N          64.3500   92.5615   10.7014 N.pl3   1  UNL1       -0.3312
     20 H          63.9130   93.4125   10.9338 H       1  UNL1        0.1469
     21 C          65.8221   92.3870   10.9310 C.ar    1  UNL1        0.0477
     22 C          66.7567   92.2861    9.7622 C.ar    1  UNL1        0.0350
     23 C          68.2287   92.1117    9.9918 C.ar    1  UNL1        0.1001
     24 N          68.7660   92.0381   11.3903 N.ar    1  UNL1       -0.2437
     25 C          67.8314   92.1390   12.5592 C.ar    1  UNL1        0.0833
     26 C          68.3688   92.0654   13.9577 C.ar    1  UNL1        0.0305
     27 C          67.4342   92.1663   15.1266 C.ar    1  UNL1        0.0592
     28 CL         67.9715   92.0927   16.5251 Cl      1  UNL1       -0.0822
     29 C          65.9621   92.3408   14.8969 C.ar    1  UNL1        0.0115
     30 C          65.4247   92.4143   13.4984 C.ar    1  UNL1        0.0036
     31 C          66.3594   92.3134   12.3295 C.ar    1  UNL1        0.0309
@<TRIPOS>BOND
     1     6     7    1
     2     7     5    1
     3     5     1    1
     4     1     2    2
     5     1     3   am
     6     3    17    1
     7    17    18    1
     8    18    19    1
     9    19    21    1
    10    21    22   ar
    11    22    23   ar
    12    23    24   ar
    13    24    25   ar
    14    25    26   ar
    15    26    27   ar
    16    27    28    1
    17    27    29   ar
    18    29    30   ar
    19    30    31   ar
    20     7     8    1
    21     8     9    1
    22     9    10    1
    23    10    11    1
    24    11    12    1
    25    12    13    1
    26    13    14    1
    27     9    15    1
    28    15    16    1
    29    16     7    1
    30    31    21   ar
    31    14     9    1
    32    31    25   ar
    33     3     4    1
    34    19    20    1
