@<TRIPOS>MOLECULE
*****
 30 33 0 0 0
SMALL
GASTEIGER

@<TRIPOS>ATOM
      1 C          59.7362   88.3264    8.2839 C.ar    1  UNL1        0.1553
      2 C          60.2882   86.9329    8.2248 C.ar    1  UNL1        0.1371
      3 N          61.1444   86.7215    9.4382 N.ar    1  UNL1       -0.2193
      4 N          61.9418   85.5423    9.9109 N.ar    1  UNL1       -0.1420
      5 C          62.7164   85.6260   11.1926 C.ar    1  UNL1        0.2225
      6 N          62.6936   86.8889   12.0017 N.ar    1  UNL1       -0.1863
      7 C          61.8962   88.0681   11.5290 C.ar    1  UNL1        0.2487
      8 C          61.1216   87.9844   10.2472 C.ar    1  UNL1        0.1353
      9 C          60.2513   88.9762    9.5338 C.ar    1  UNL1        0.0359
     10 C          59.9491   90.3728    9.9902 C.3     1  UNL1        0.0360
     11 O          58.8286   88.9589    7.2709 O.3     1  UNL1       -0.4715
     12 C          59.4053   89.7830    6.1582 C.3     1  UNL1        0.2370
     13 C          58.5679   90.8336    5.4912 C.3     1  UNL1        0.1838
     14 O          57.0746   90.6948    5.4606 O.3     1  UNL1       -0.3784
     15 H          56.6888   91.4534    4.9953 H       1  UNL1        0.2106
     16 C          59.2237   92.0232    4.8549 C.3     1  UNL1        0.1752
     17 C          59.9351   93.0923    2.5964 C.3     1  UNL1        0.1742
     18 O          58.9135   92.3782    3.4309 O.3     1  UNL1       -0.3484
     19 O          61.8733   89.3310   12.3380 O.3     1  UNL1       -0.4361
     20 C          63.0891   90.2078   12.3942 C.2     1  UNL1        0.1615
     21 C          63.4346   91.0865   11.2286 C.2     1  UNL1        0.0377
     22 C          64.6503   91.9633   11.2848 C.2     1  UNL1        0.0217
     23 C          65.5206   91.9614   12.5065 C.2     1  UNL1        0.0800
     24 N          66.7728   92.7133   12.8480 N.2     1  UNL1       -0.2499
     25 C          67.2012   92.2994   14.2246 C.2     1  UNL1        0.0592
     26 C          68.4056   92.8045   14.9624 C.3     1  UNL1        0.0521
     27 C          66.2138   91.2916   14.7339 C.2     1  UNL1        0.0150
     28 C          65.1751   91.0827   13.6720 C.2     1  UNL1        0.0360
     29 C          63.9594   90.2059   13.6159 C.3     1  UNL1        0.2412
     30 F          63.6139   89.3272   14.7815 F       1  UNL1       -0.2241
@<TRIPOS>BOND
     1    17    18    1
     2    18    16    1
     3    16    13    1
     4    13    14    1
     5    13    12    1
     6    12    11    1
     7    11     1    1
     8     1     2   ar
     9     2     3   ar
    10     3     4   ar
    11     4     5   ar
    12     5     6   ar
    13     6     7   ar
    14     7    19    1
    15    19    20    1
    16    20    21    2
    17    21    22    1
    18    22    23    2
    19    23    24    1
    20    24    25    2
    21    25    26    1
    22    25    27    1
    23    27    28    2
    24    28    29    1
    25    29    30    1
    26     7     8   ar
    27     8     9   ar
    28     9    10    1
    29     9     1   ar
    30     8     3   ar
    31    29    20    1
    32    28    23    1
    33    14    15    1
@<TRIPOS>MOLECULE
*****
 30 33 0 0 0
SMALL
GASTEIGER

@<TRIPOS>ATOM
      1 C          62.4017   85.7662   10.5011 C.ar    1  UNL1        0.1553
      2 C          61.4955   86.3066    9.4349 C.ar    1  UNL1        0.1371
      3 N          61.1092   87.7041    9.8193 N.ar    1  UNL1       -0.2193
      4 N          60.2359   88.7239    9.1505 N.ar    1  UNL1       -0.1420
      5 C          60.0301   90.0671    9.7856 C.ar    1  UNL1        0.2225
      6 N          60.6975   90.3905   11.0894 N.ar    1  UNL1       -0.1863
      7 C          61.5708   89.3706   11.7582 C.ar    1  UNL1        0.2487
      8 C          61.7766   88.0274   11.1231 C.ar    1  UNL1        0.1353
      9 C          62.5754   86.8298   11.5445 C.ar    1  UNL1        0.0359
     10 C          63.4027   86.7157   12.7905 C.3     1  UNL1        0.0360
     11 O          63.0247   84.4018   10.5205 O.3     1  UNL1       -0.4715
     12 C          62.6970   83.4434   11.6267 C.3     1  UNL1        0.2370
     13 C          63.7921   82.8939   12.4921 C.3     1  UNL1        0.1838
     14 O          65.0918   82.4674   11.8766 O.3     1  UNL1       -0.3784
     15 H          65.6854   82.1388   12.5698 H       1  UNL1        0.2106
     16 C          63.5874   82.7709   13.9730 C.3     1  UNL1        0.1752
     17 C          61.4992   81.2387   14.1768 C.3     1  UNL1        0.1742
     18 O          62.9204   81.5526   14.5394 O.3     1  UNL1       -0.3484
     19 O          62.2383   89.6940   13.0620 O.3     1  UNL1       -0.4361
     20 C          63.4451   90.5844   13.0862 C.2     1  UNL1        0.1615
     21 C          63.9041   91.2600   11.8280 C.2     1  UNL1        0.0377
     22 C          65.1110   92.1504   11.8522 C.2     1  UNL1        0.0217
     23 C          65.8590   92.3651   13.1345 C.2     1  UNL1        0.0800
     24 N          67.0742   93.1807   13.4632 N.2     1  UNL1       -0.2499
     25 C          67.3663   93.0092   14.9244 C.2     1  UNL1        0.0592
     26 C          68.4950   93.6473   15.6788 C.3     1  UNL1        0.0521
     27 C          66.3316   92.0876   15.4989 C.2     1  UNL1        0.0150
     28 C          65.4001   91.6896   14.3927 C.2     1  UNL1        0.0360
     29 C          64.1931   90.7991   14.3685 C.3     1  UNL1        0.2412
     30 F          63.7342   90.1236   15.6267 F       1  UNL1       -0.2241
@<TRIPOS>BOND
     1    17    18    1
     2    18    16    1
     3    16    13    1
     4    13    14    1
     5    13    12    1
     6    12    11    1
     7    11     1    1
     8     1     2   ar
     9     2     3   ar
    10     3     4   ar
    11     4     5   ar
    12     5     6   ar
    13     6     7   ar
    14     7    19    1
    15    19    20    1
    16    20    21    2
    17    21    22    1
    18    22    23    2
    19    23    24    1
    20    24    25    2
    21    25    26    1
    22    25    27    1
    23    27    28    2
    24    28    29    1
    25    29    30    1
    26     7     8   ar
    27     8     9   ar
    28     9    10    1
    29     9     1   ar
    30     8     3   ar
    31    29    20    1
    32    28    23    1
    33    14    15    1
@<TRIPOS>MOLECULE
*****
 30 33 0 0 0
SMALL
GASTEIGER

@<TRIPOS>ATOM
      1 C          61.6087   85.9797   10.5391 C.ar    1  UNL1        0.1553
      2 C          62.4131   84.9301   11.2472 C.ar    1  UNL1        0.1371
      3 N          63.1260   85.5864   12.3923 N.ar    1  UNL1       -0.2193
      4 N          64.0593   85.0469   13.4352 N.ar    1  UNL1       -0.1420
      5 C          64.6289   85.9626   14.4777 C.ar    1  UNL1        0.2225
      6 N          64.2652   87.4179   14.4773 N.ar    1  UNL1       -0.1863
      7 C          63.3318   87.9573   13.4344 C.ar    1  UNL1        0.2487
      8 C          62.7622   87.0416   12.3918 C.ar    1  UNL1        0.1353
      9 C          61.8245   87.2846   11.2466 C.ar    1  UNL1        0.0359
     10 C          61.2104   88.6015   10.8741 C.3     1  UNL1        0.0360
     11 O          60.7410   85.7624    9.3351 O.3     1  UNL1       -0.4715
     12 C          60.7787   86.7392    8.1973 C.3     1  UNL1        0.2370
     13 C          59.5248   87.4443    7.7724 C.3     1  UNL1        0.1838
     14 O          58.2224   86.7013    7.7349 O.3     1  UNL1       -0.3784
     15 H          57.5174   87.2991    7.4408 H       1  UNL1        0.2106
     16 C          59.5735   88.8927    7.3849 C.3     1  UNL1        0.1752
     17 C          59.0235   90.7685    5.6735 C.3     1  UNL1        0.1742
     18 O          58.8143   89.3737    6.1840 O.3     1  UNL1       -0.3484
     19 O          62.9681   89.4126   13.4340 O.3     1  UNL1       -0.4361
     20 C          64.0239   90.4495   13.1894 C.2     1  UNL1        0.1615
     21 C          65.0724   90.7122   14.2296 C.2     1  UNL1        0.0377
     22 C          66.1282   91.7491   13.9851 C.2     1  UNL1        0.0217
     23 C          66.1358   92.5234   12.7004 C.2     1  UNL1        0.0800
     24 N          67.0436   93.5991   12.1821 N.2     1  UNL1       -0.2499
     25 C          66.5564   94.0013   10.8217 C.2     1  UNL1        0.0592
     26 C          67.1704   95.0470    9.9388 C.3     1  UNL1        0.0521
     27 C          65.3473   93.1741   10.4991 C.2     1  UNL1        0.0150
     28 C          65.0874   92.2608   11.6602 C.2     1  UNL1        0.0360
     29 C          64.0315   91.2238   11.9047 C.3     1  UNL1        0.2412
     30 F          62.9831   90.9612   10.8646 F       1  UNL1       -0.2241
@<TRIPOS>BOND
     1    17    18    1
     2    18    16    1
     3    16    13    1
     4    13    14    1
     5    13    12    1
     6    12    11    1
     7    11     1    1
     8     1     2   ar
     9     2     3   ar
    10     3     4   ar
    11     4     5   ar
    12     5     6   ar
    13     6     7   ar
    14     7    19    1
    15    19    20    1
    16    20    21    2
    17    21    22    1
    18    22    23    2
    19    23    24    1
    20    24    25    2
    21    25    26    1
    22    25    27    1
    23    27    28    2
    24    28    29    1
    25    29    30    1
    26     7     8   ar
    27     8     9   ar
    28     9    10    1
    29     9     1   ar
    30     8     3   ar
    31    29    20    1
    32    28    23    1
    33    14    15    1
@<TRIPOS>MOLECULE
*****
 30 33 0 0 0
SMALL
GASTEIGER

@<TRIPOS>ATOM
      1 C          62.2241   86.6710    9.7931 C.ar    1  UNL1        0.1553
      2 C          62.7372   85.4999   10.5775 C.ar    1  UNL1        0.1371
      3 N          63.1326   85.9909   11.9385 N.ar    1  UNL1       -0.2193
      4 N          63.7026   85.2858   13.1335 N.ar    1  UNL1       -0.1420
      5 C          64.0038   86.0554   14.3853 C.ar    1  UNL1        0.2225
      6 N          63.7351   87.5300   14.4421 N.ar    1  UNL1       -0.1863
      7 C          63.1651   88.2351   13.2472 C.ar    1  UNL1        0.2487
      8 C          62.8639   87.4656   11.9954 C.ar    1  UNL1        0.1353
      9 C          62.3024   87.8858   10.6694 C.ar    1  UNL1        0.0359
     10 C          61.8914   89.2768   10.2870 C.3     1  UNL1        0.0360
     11 O          61.7211   86.6337    8.3804 O.3     1  UNL1       -0.4715
     12 C          60.3705   86.0545    8.0803 C.3     1  UNL1        0.2370
     13 C          59.2024   86.9630    7.8351 C.3     1  UNL1        0.1838
     14 O          57.8162   86.3962    7.7504 O.3     1  UNL1       -0.3784
     15 H          57.1830   87.1132    7.5894 H       1  UNL1        0.2106
     16 C          59.4205   88.4384    7.6747 C.3     1  UNL1        0.1752
     17 C          58.8540   90.3101    5.9642 C.3     1  UNL1        0.1742
     18 O          59.5603   89.0312    6.3039 O.3     1  UNL1       -0.3484
     19 O          62.8964   89.7098   13.3040 O.3     1  UNL1       -0.4361
     20 C          64.0399   90.6793   13.3506 C.2     1  UNL1        0.1615
     21 C          64.4762   91.3852   12.1010 C.2     1  UNL1        0.0377
     22 C          65.6198   92.3547   12.1476 C.2     1  UNL1        0.0217
     23 C          66.3272   92.6183   13.4438 C.2     1  UNL1        0.0800
     24 N          67.4783   93.5136   13.7949 N.2     1  UNL1       -0.2499
     25 C          67.7536   93.3610   15.2615 C.2     1  UNL1        0.0592
     26 C          68.8223   94.0730   16.0368 C.3     1  UNL1        0.0521
     27 C          66.7725   92.3714   15.8168 C.2     1  UNL1        0.0150
     28 C          65.8910   91.9125   14.6933 C.2     1  UNL1        0.0360
     29 C          64.7474   90.9429   14.6468 C.3     1  UNL1        0.2412
     30 F          64.3112   90.2371   15.8963 F       1  UNL1       -0.2241
@<TRIPOS>BOND
     1    17    18    1
     2    18    16    1
     3    16    13    1
     4    13    14    1
     5    13    12    1
     6    12    11    1
     7    11     1    1
     8     1     2   ar
     9     2     3   ar
    10     3     4   ar
    11     4     5   ar
    12     5     6   ar
    13     6     7   ar
    14     7    19    1
    15    19    20    1
    16    20    21    2
    17    21    22    1
    18    22    23    2
    19    23    24    1
    20    24    25    2
    21    25    26    1
    22    25    27    1
    23    27    28    2
    24    28    29    1
    25    29    30    1
    26     7     8   ar
    27     8     9   ar
    28     9    10    1
    29     9     1   ar
    30     8     3   ar
    31    29    20    1
    32    28    23    1
    33    14    15    1
@<TRIPOS>MOLECULE
*****
 30 33 0 0 0
SMALL
GASTEIGER

@<TRIPOS>ATOM
      1 C          63.3748   85.0323   12.0792 C.ar    1  UNL1        0.1553
      2 C          62.6435   84.9468   10.7723 C.ar    1  UNL1        0.1371
      3 N          62.0445   86.2921   10.4875 N.ar    1  UNL1       -0.2193
      4 N          61.2169   86.8006    9.3445 N.ar    1  UNL1       -0.1420
      5 C          60.7504   88.2262    9.3323 C.ar    1  UNL1        0.2225
      6 N          61.1114   89.1432   10.4631 N.ar    1  UNL1       -0.1863
      7 C          61.9389   88.6346   11.6061 C.ar    1  UNL1        0.2487
      8 C          62.4055   87.2091   11.6183 C.ar    1  UNL1        0.1353
      9 C          63.2277   86.4305   12.6020 C.ar    1  UNL1        0.0359
     10 C          63.8019   86.9575   13.8836 C.3     1  UNL1        0.0360
     11 O          64.1220   83.9156   12.7462 O.3     1  UNL1       -0.4715
     12 C          64.2197   83.8671   14.2422 C.3     1  UNL1        0.2370
     13 C          63.0188   83.4953   15.0606 C.3     1  UNL1        0.1838
     14 O          62.4941   82.0905   15.0272 O.3     1  UNL1       -0.3784
     15 H          61.7203   82.0205   15.6079 H       1  UNL1        0.2106
     16 C          62.3427   84.5285   15.9124 C.3     1  UNL1        0.1752
     17 C          62.4925   86.5025   17.5948 C.3     1  UNL1        0.1742
     18 O          63.1586   85.4133   16.8076 O.3     1  UNL1       -0.3484
     19 O          62.2999   89.5516   12.7370 O.3     1  UNL1       -0.4361
     20 C          63.4985   90.4463   12.6237 C.2     1  UNL1        0.1615
     21 C          64.5219   90.4717   13.7202 C.2     1  UNL1        0.0377
     22 C          65.7205   91.3664   13.6069 C.2     1  UNL1        0.0217
     23 C          65.8958   92.2357   12.3971 C.2     1  UNL1        0.0800
     24 N          66.9664   93.2122   12.0095 N.2     1  UNL1       -0.2499
     25 C          66.6048   93.7903   10.6735 C.2     1  UNL1        0.0592
     26 C          67.3980   94.8089    9.9096 C.3     1  UNL1        0.0521
     27 C          65.3106   93.1712   10.2354 C.2     1  UNL1        0.0150
     28 C          64.8725   92.2104   11.3007 C.2     1  UNL1        0.0360
     29 C          63.6738   91.3157   11.4139 C.3     1  UNL1        0.2412
     30 F          62.6506   91.2904   10.3175 F       1  UNL1       -0.2241
@<TRIPOS>BOND
     1    17    18    1
     2    18    16    1
     3    16    13    1
     4    13    14    1
     5    13    12    1
     6    12    11    1
     7    11     1    1
     8     1     2   ar
     9     2     3   ar
    10     3     4   ar
    11     4     5   ar
    12     5     6   ar
    13     6     7   ar
    14     7    19    1
    15    19    20    1
    16    20    21    2
    17    21    22    1
    18    22    23    2
    19    23    24    1
    20    24    25    2
    21    25    26    1
    22    25    27    1
    23    27    28    2
    24    28    29    1
    25    29    30    1
    26     7     8   ar
    27     8     9   ar
    28     9    10    1
    29     9     1   ar
    30     8     3   ar
    31    29    20    1
    32    28    23    1
    33    14    15    1
@<TRIPOS>MOLECULE
*****
 30 33 0 0 0
SMALL
GASTEIGER

@<TRIPOS>ATOM
      1 C          63.5129   84.5362   12.4498 C.ar    1  UNL1        0.1553
      2 C          62.9816   84.4298   11.0511 C.ar    1  UNL1        0.1371
      3 N          62.4838   85.7838   10.6400 N.ar    1  UNL1       -0.2193
      4 N          61.8557   86.2796    9.3714 N.ar    1  UNL1       -0.1420
      5 C          61.4514   87.7187    9.2473 C.ar    1  UNL1        0.2225
      6 N          61.6751   88.6620   10.3920 N.ar    1  UNL1       -0.1863
      7 C          62.3031   88.1661   11.6607 C.ar    1  UNL1        0.2487
      8 C          62.7075   86.7270   11.7847 C.ar    1  UNL1        0.1353
      9 C          63.3435   85.9560   12.9032 C.ar    1  UNL1        0.0359
     10 C          63.7405   86.5079   14.2403 C.3     1  UNL1        0.0360
     11 O          64.1090   83.4190   13.2539 O.3     1  UNL1       -0.4715
     12 C          63.2163   82.4773   14.0063 C.3     1  UNL1        0.2370
     13 C          62.5608   81.3330   13.2915 C.3     1  UNL1        0.1838
     14 O          62.9475   81.0110   11.8784 O.3     1  UNL1       -0.3784
     15 H          62.4333   80.2494   11.5680 H       1  UNL1        0.2106
     16 C          61.5185   80.5107   13.9898 C.3     1  UNL1        0.1752
     17 C          59.0198   80.0121   14.4974 C.3     1  UNL1        0.1742
     18 O          60.0716   80.8940   13.8926 O.3     1  UNL1       -0.3484
     19 O          62.5268   89.1094   12.8053 O.3     1  UNL1       -0.4361
     20 C          63.6345   90.1187   12.7400 C.2     1  UNL1        0.1615
     21 C          64.6793   90.1564   13.8156 C.2     1  UNL1        0.0377
     22 C          65.7870   91.1657   13.7503 C.2     1  UNL1        0.0217
     23 C          65.8498   92.1374   12.6093 C.2     1  UNL1        0.0800
     24 N          66.8154   93.2368   12.2793 N.2     1  UNL1       -0.2499
     25 C          66.3674   93.8786   10.9997 C.2     1  UNL1        0.0592
     26 C          67.0433   95.0224   10.3032 C.3     1  UNL1        0.0521
     27 C          65.1249   93.1759   10.5389 C.2     1  UNL1        0.0150
     28 C          64.8051   92.0998   11.5337 C.2     1  UNL1        0.0360
     29 C          63.6973   91.0904   11.5990 C.3     1  UNL1        0.2412
     30 F          62.6526   91.0528   10.5234 F       1  UNL1       -0.2241
@<TRIPOS>BOND
     1    17    18    1
     2    18    16    1
     3    16    13    1
     4    13    14    1
     5    13    12    1
     6    12    11    1
     7    11     1    1
     8     1     2   ar
     9     2     3   ar
    10     3     4   ar
    11     4     5   ar
    12     5     6   ar
    13     6     7   ar
    14     7    19    1
    15    19    20    1
    16    20    21    2
    17    21    22    1
    18    22    23    2
    19    23    24    1
    20    24    25    2
    21    25    26    1
    22    25    27    1
    23    27    28    2
    24    28    29    1
    25    29    30    1
    26     7     8   ar
    27     8     9   ar
    28     9    10    1
    29     9     1   ar
    30     8     3   ar
    31    29    20    1
    32    28    23    1
    33    14    15    1
@<TRIPOS>MOLECULE
*****
 30 33 0 0 0
SMALL
GASTEIGER

@<TRIPOS>ATOM
      1 C          59.8983   88.9411    8.4403 C.ar    1  UNL1        0.1553
      2 C          60.0982   90.0564    9.4232 C.ar    1  UNL1        0.1371
      3 N          61.0825   89.5934   10.4559 N.ar    1  UNL1       -0.2193
      4 N          61.6597   90.2668   11.6656 N.ar    1  UNL1       -0.1420
      5 C          62.6453   89.5387   12.5306 C.ar    1  UNL1        0.2225
      6 N          63.0538   88.1372   12.1860 N.ar    1  UNL1       -0.1863
      7 C          62.4767   87.4637   10.9763 C.ar    1  UNL1        0.2487
      8 C          61.4910   88.1918   10.1113 C.ar    1  UNL1        0.1353
      9 C          60.7591   87.7887    8.8656 C.ar    1  UNL1        0.0359
     10 C          60.8688   86.4655    8.1677 C.3     1  UNL1        0.0360
     11 O          58.9959   88.9727    7.2424 O.3     1  UNL1       -0.4715
     12 C          59.3649   89.8004    6.0471 C.3     1  UNL1        0.2370
     13 C          58.4021   90.8201    5.5149 C.3     1  UNL1        0.1838
     14 O          56.9257   90.5626    5.5786 O.3     1  UNL1       -0.3784
     15 H          56.4494   91.3156    5.1952 H       1  UNL1        0.2106
     16 C          58.9157   92.0972    4.9189 C.3     1  UNL1        0.1752
     17 C          60.1294   93.1323    2.8682 C.3     1  UNL1        0.1742
     18 O          60.0285   92.0615    3.9137 O.3     1  UNL1       -0.3484
     19 O          62.8852   86.0621   10.6317 O.3     1  UNL1       -0.4361
     20 C          62.7594   84.9715   11.6538 C.2     1  UNL1        0.1615
     21 C          62.5545   85.3178   13.0988 C.2     1  UNL1        0.0377
     22 C          62.4287   84.2272   14.1209 C.2     1  UNL1        0.0217
     23 C          62.5078   82.7902   13.6980 C.2     1  UNL1        0.0800
     24 N          62.4189   81.5093   14.4735 N.2     1  UNL1       -0.2499
     25 C          62.5688   80.3714   13.5078 C.2     1  UNL1        0.0592
     26 C          62.5419   78.9120   13.8537 C.3     1  UNL1        0.0521
     27 C          62.7504   80.9490   12.1354 C.2     1  UNL1        0.0150
     28 C          62.7127   82.4439   12.2530 C.2     1  UNL1        0.0360
     29 C          62.8385   83.5345   11.2308 C.3     1  UNL1        0.2412
     30 F          63.0434   83.1882    9.7859 F       1  UNL1       -0.2241
@<TRIPOS>BOND
     1    17    18    1
     2    18    16    1
     3    16    13    1
     4    13    14    1
     5    13    12    1
     6    12    11    1
     7    11     1    1
     8     1     2   ar
     9     2     3   ar
    10     3     4   ar
    11     4     5   ar
    12     5     6   ar
    13     6     7   ar
    14     7    19    1
    15    19    20    1
    16    20    21    2
    17    21    22    1
    18    22    23    2
    19    23    24    1
    20    24    25    2
    21    25    26    1
    22    25    27    1
    23    27    28    2
    24    28    29    1
    25    29    30    1
    26     7     8   ar
    27     8     9   ar
    28     9    10    1
    29     9     1   ar
    30     8     3   ar
    31    29    20    1
    32    28    23    1
    33    14    15    1
@<TRIPOS>MOLECULE
*****
 30 33 0 0 0
SMALL
GASTEIGER

@<TRIPOS>ATOM
      1 C          61.1977   86.5917   10.4573 C.ar    1  UNL1        0.1553
      2 C          61.9144   85.6155   11.3423 C.ar    1  UNL1        0.1371
      3 N          62.6942   86.3965   12.3582 N.ar    1  UNL1       -0.2193
      4 N          63.5876   85.9677   13.4841 N.ar    1  UNL1       -0.1420
      5 C          64.2463   86.9979   14.3529 C.ar    1  UNL1        0.2225
      6 N          64.0115   88.4569   14.0957 N.ar    1  UNL1       -0.1863
      7 C          63.1180   88.8857   12.9698 C.ar    1  UNL1        0.2487
      8 C          62.4594   87.8555   12.1010 C.ar    1  UNL1        0.1353
      9 C          61.5345   87.9762   10.9262 C.ar    1  UNL1        0.0359
     10 C          61.0343   89.2565   10.3258 C.3     1  UNL1        0.0360
     11 O          60.3016   86.2445    9.3056 O.3     1  UNL1       -0.4715
     12 C          60.8010   86.3840    7.8981 C.3     1  UNL1        0.2370
     13 C          61.4590   85.2207    7.2171 C.3     1  UNL1        0.1838
     14 O          60.6871   84.3936    6.2322 O.3     1  UNL1       -0.3784
     15 H          61.2557   83.6875    5.8871 H       1  UNL1        0.2106
     16 C          62.8890   84.8846    7.5209 C.3     1  UNL1        0.1752
     17 C          63.9266   83.5517    9.4950 C.3     1  UNL1        0.1742
     18 O          63.3597   84.8265    8.9440 O.3     1  UNL1       -0.3484
     19 O          62.8833   90.3447   12.7126 O.3     1  UNL1       -0.4361
     20 C          64.0447   91.2557   12.4459 C.2     1  UNL1        0.1615
     21 C          65.0600   91.5108   13.5203 C.2     1  UNL1        0.0377
     22 C          66.2215   92.4217   13.2536 C.2     1  UNL1        0.0217
     23 C          66.3676   93.0776   11.9125 C.2     1  UNL1        0.0800
     24 N          67.3994   94.0168   11.3617 N.2     1  UNL1       -0.2499
     25 C          67.0218   94.3422    9.9470 C.2     1  UNL1        0.0592
     26 C          67.7768   95.2469    9.0187 C.3     1  UNL1        0.0521
     27 C          65.7566   93.6042    9.6234 C.2     1  UNL1        0.0150
     28 C          65.3524   92.8226   10.8382 C.2     1  UNL1        0.0360
     29 C          64.1909   91.9116   11.1049 C.3     1  UNL1        0.2412
     30 F          63.1757   91.6566   10.0306 F       1  UNL1       -0.2241
@<TRIPOS>BOND
     1    17    18    1
     2    18    16    1
     3    16    13    1
     4    13    14    1
     5    13    12    1
     6    12    11    1
     7    11     1    1
     8     1     2   ar
     9     2     3   ar
    10     3     4   ar
    11     4     5   ar
    12     5     6   ar
    13     6     7   ar
    14     7    19    1
    15    19    20    1
    16    20    21    2
    17    21    22    1
    18    22    23    2
    19    23    24    1
    20    24    25    2
    21    25    26    1
    22    25    27    1
    23    27    28    2
    24    28    29    1
    25    29    30    1
    26     7     8   ar
    27     8     9   ar
    28     9    10    1
    29     9     1   ar
    30     8     3   ar
    31    29    20    1
    32    28    23    1
    33    14    15    1
@<TRIPOS>MOLECULE
*****
 30 33 0 0 0
SMALL
GASTEIGER

@<TRIPOS>ATOM
      1 C          61.4642   88.6699   10.7912 C.ar    1  UNL1        0.1553
      2 C          61.3999   89.8287   11.7414 C.ar    1  UNL1        0.1371
      3 N          62.3207   89.5385   12.8895 N.ar    1  UNL1       -0.2193
      4 N          62.6642   90.3200   14.1229 N.ar    1  UNL1       -0.1420
      5 C          63.6411   89.7631   15.1156 C.ar    1  UNL1        0.2225
      6 N          64.2745   88.4249   14.8749 N.ar    1  UNL1       -0.1863
      7 C          63.9310   87.6435   13.6415 C.ar    1  UNL1        0.2487
      8 C          62.9541   88.2003   12.6488 C.ar    1  UNL1        0.1353
      9 C          62.4248   87.6635   11.3520 C.ar    1  UNL1        0.0359
     10 C          62.7916   86.3506   10.7259 C.3     1  UNL1        0.0360
     11 O          60.7019   88.5402    9.5059 O.3     1  UNL1       -0.4715
     12 C          59.6234   87.5060    9.3747 C.3     1  UNL1        0.2370
     13 C          59.5554   86.6447    8.1485 C.3     1  UNL1        0.1838
     14 O          58.2718   86.5330    7.3806 O.3     1  UNL1       -0.3784
     15 H          58.3991   85.9418    6.6222 H       1  UNL1        0.2106
     16 C          60.7713   85.8951    7.6902 C.3     1  UNL1        0.1752
     17 C          61.8477   84.3727    5.8809 C.3     1  UNL1        0.1742
     18 O          60.6420   84.8182    6.6541 O.3     1  UNL1       -0.3484
     19 O          64.5644   86.3052   13.4008 O.3     1  UNL1       -0.4361
     20 C          63.8313   85.0507   13.7731 C.2     1  UNL1        0.1615
     21 C          62.9675   85.0225   14.9992 C.2     1  UNL1        0.0377
     22 C          62.2345   83.7679   15.3715 C.2     1  UNL1        0.0217
     23 C          62.3652   82.5415   14.5178 C.2     1  UNL1        0.0800
     24 N          61.7675   81.1705   14.6324 N.2     1  UNL1       -0.2499
     25 C          62.2619   80.3513   13.4771 C.2     1  UNL1        0.0592
     26 C          61.9141   78.9189   13.1992 C.3     1  UNL1        0.0521
     27 C          63.1651   81.2161   12.6486 C.2     1  UNL1        0.0150
     28 C          63.2289   82.5696   13.2918 C.2     1  UNL1        0.0360
     29 C          63.9620   83.8242   12.9194 C.3     1  UNL1        0.2412
     30 F          64.8257   83.8524   11.6934 F       1  UNL1       -0.2241
@<TRIPOS>BOND
     1    17    18    1
     2    18    16    1
     3    16    13    1
     4    13    14    1
     5    13    12    1
     6    12    11    1
     7    11     1    1
     8     1     2   ar
     9     2     3   ar
    10     3     4   ar
    11     4     5   ar
    12     5     6   ar
    13     6     7   ar
    14     7    19    1
    15    19    20    1
    16    20    21    2
    17    21    22    1
    18    22    23    2
    19    23    24    1
    20    24    25    2
    21    25    26    1
    22    25    27    1
    23    27    28    2
    24    28    29    1
    25    29    30    1
    26     7     8   ar
    27     8     9   ar
    28     9    10    1
    29     9     1   ar
    30     8     3   ar
    31    29    20    1
    32    28    23    1
    33    14    15    1
