@<TRIPOS>MOLECULE
*****
 39 40 0 0 0
SMALL
GASTEIGER

@<TRIPOS>ATOM
      1 N          61.9472   89.2288   11.4692 N.3     1  UNL1       -0.2699
      2 C          59.7109   90.5316   11.2423 C.3     1  UNL1        0.0188
      3 C          60.6838   89.7571   12.0811 C.3     1  UNL1        0.0722
      4 C          61.9608   88.7950   10.0333 C.3     1  UNL1        0.0926
      5 C          61.3743   87.4703    9.6445 C.3     1  UNL1        0.1018
      6 N          62.2442   86.2492    9.5992 N.am    1  UNL1       -0.2703
      7 C          62.4394   85.4211   10.8346 C.2     1  UNL1        0.4020
      8 O          61.7646   85.8142   12.1152 O.2     1  UNL1       -0.2264
      9 H          62.6870   85.9912    8.7586 H       1  UNL1        0.1527
     10 O          63.3093   84.2000   10.7893 O.3     1  UNL1       -0.4274
     11 C          63.8537   83.6194   12.0608 C.3     1  UNL1        0.2621
     12 C          63.1354   82.4896   12.7371 C.ar    1  UNL1        0.1323
     13 N          63.0462   81.0775   12.2390 N.ar    1  UNL1       -0.2374
     14 C          62.2358   80.2887   13.2244 C.ar    1  UNL1        0.1062
     15 C          61.8242   81.2132   14.3315 C.ar    1  UNL1        0.0573
     16 S          62.3802   82.5734   14.0304 S.2     1  UNL1       -0.0666
     17 C          59.9178   87.3668    9.3009 C.3     1  UNL1        0.1306
     18 C          59.4994   87.0456    7.8968 C.2     1  UNL1        0.3188
     19 O          59.8104   85.7004    7.3106 O.2     1  UNL1       -0.2500
     20 O          58.7699   88.0697    7.0788 O.3     1  UNL1       -0.4443
     21 C          59.4145   89.3914    6.7833 C.3     1  UNL1        0.2556
     22 C          63.1971   89.1343   12.2931 C.3     1  UNL1        0.0926
     23 C          63.5255   90.2116   13.2838 C.3     1  UNL1        0.1018
     24 N          64.1378   91.4988   12.8167 N.am    1  UNL1       -0.2703
     25 C          65.4853   91.9167   13.3262 C.2     1  UNL1        0.4020
     26 O          66.2206   91.0474   14.3027 O.2     1  UNL1       -0.2264
     27 H          63.6552   92.0693   12.1758 H       1  UNL1        0.1527
     28 O          66.0975   93.2039   12.8590 O.3     1  UNL1       -0.4291
     29 C          65.7834   93.7303   11.4900 C.3     1  UNL1        0.2447
     30 C          66.7713   93.5563   10.3747 C.ar    1  UNL1        0.0714
     31 C          67.0426   94.5405    9.2757 C.ar    1  UNL1        0.1053
     32 N          68.1003   93.9601    8.3844 N.ar    1  UNL1       -0.2350
     33 C          68.4827   92.6172    8.9325 C.ar    1  UNL1        0.1343
     34 S          67.6613   92.3677   10.1626 S.2     1  UNL1       -0.0652
     35 C          63.2416   90.0016   14.7417 C.3     1  UNL1        0.1306
     36 C          63.6393   88.7168   15.4058 C.2     1  UNL1        0.3188
     37 O          63.0580   88.3505   16.7392 O.2     1  UNL1       -0.2500
     38 O          64.6183   87.7984   14.7365 O.3     1  UNL1       -0.4443
     39 C          64.4990   86.3142   14.9178 C.3     1  UNL1        0.2556
@<TRIPOS>BOND
     1     2     3    1
     2     3     1    1
     3     1    22    1
     4    22    23    1
     5    23    35    1
     6    35    36    1
     7    36    37    2
     8    36    38    1
     9    38    39    1
    10    23    24    1
    11    24    25   am
    12    25    26    2
    13    25    28    1
    14    28    29    1
    15    29    30    1
    16    30    31   ar
    17    31    32   ar
    18    32    33   ar
    19    33    34   ar
    20     1     4    1
    21     4     5    1
    22     5    17    1
    23    17    18    1
    24    18    19    2
    25    18    20    1
    26    20    21    1
    27     5     6    1
    28     6     7   am
    29     7     8    2
    30     7    10    1
    31    10    11    1
    32    11    12    1
    33    12    13   ar
    34    13    14   ar
    35    14    15   ar
    36    15    16   ar
    37    34    30   ar
    38    16    12   ar
    39    24    27    1
    40     6     9    1
@<TRIPOS>MOLECULE
*****
 39 40 0 0 0
SMALL
GASTEIGER

@<TRIPOS>ATOM
      1 N          62.2646   86.1015   10.5162 N.3     1  UNL1       -0.2699
      2 C          63.1234   84.9986    8.3263 C.3     1  UNL1        0.0188
      3 C          62.3907   86.1075    9.0216 C.3     1  UNL1        0.0722
      4 C          62.0592   84.8073   11.2464 C.3     1  UNL1        0.0926
      5 C          62.8913   84.4865   12.4525 C.3     1  UNL1        0.1018
      6 N          62.6355   85.1942   13.7500 N.am    1  UNL1       -0.2703
      7 C          62.3016   84.4055   14.9815 C.2     1  UNL1        0.4020
      8 O          62.2236   82.9091   14.9153 O.2     1  UNL1       -0.2264
      9 H          62.6867   86.1765   13.7934 H       1  UNL1        0.1527
     10 O          62.0459   85.1133   16.2790 O.3     1  UNL1       -0.4274
     11 C          63.1086   85.9847   16.8802 C.3     1  UNL1        0.2621
     12 C          63.4196   87.3185   16.2683 C.ar    1  UNL1        0.1323
     13 N          64.1789   87.5491   14.9954 N.ar    1  UNL1       -0.2374
     14 C          64.2544   89.0290   14.7623 C.ar    1  UNL1        0.1062
     15 C          63.5418   89.7129   15.8912 C.ar    1  UNL1        0.0573
     16 S          63.0259   88.6558   16.8219 S.2     1  UNL1       -0.0666
     17 C          63.9791   83.4578   12.3610 C.3     1  UNL1        0.1306
     18 C          63.9581   82.4398   11.2596 C.2     1  UNL1        0.3188
     19 O          64.8907   82.5777   10.0928 O.2     1  UNL1       -0.2500
     20 O          63.0044   81.2838   11.3248 O.3     1  UNL1       -0.4443
     21 C          62.8055   80.5477   12.6165 C.3     1  UNL1        0.2556
     22 C          62.3438   87.3896   11.2808 C.3     1  UNL1        0.0926
     23 C          61.7429   88.6393   10.7089 C.3     1  UNL1        0.1018
     24 N          62.6299   89.6992   10.1260 N.am    1  UNL1       -0.2703
     25 C          63.1649   90.7940   11.0008 C.2     1  UNL1        0.4020
     26 O          62.8128   90.8290   12.4584 O.2     1  UNL1       -0.2264
     27 H          62.8610   89.6763    9.1693 H       1  UNL1        0.1527
     28 O          64.0520   91.8539   10.4177 O.3     1  UNL1       -0.4291
     29 C          65.1706   92.4287   11.2352 C.3     1  UNL1        0.2447
     30 C          66.1890   93.3212   10.5902 C.ar    1  UNL1        0.0714
     31 C          67.4656   92.8764    9.9401 C.ar    1  UNL1        0.1053
     32 N          68.1753   94.0955    9.4301 N.ar    1  UNL1       -0.2350
     33 C          67.3374   95.2938    9.7650 C.ar    1  UNL1        0.1343
     34 S          66.1098   94.8152   10.4820 S.2     1  UNL1       -0.0652
     35 C          60.2550   88.8292   10.7199 C.3     1  UNL1        0.1306
     36 C          59.6338   89.8330   11.6453 C.2     1  UNL1        0.3188
     37 O          59.3791   91.2332   11.1713 O.2     1  UNL1       -0.2500
     38 O          59.2674   89.4367   13.0449 O.3     1  UNL1       -0.4443
     39 C          58.0616   88.5789   13.2901 C.3     1  UNL1        0.2556
@<TRIPOS>BOND
     1     2     3    1
     2     3     1    1
     3     1    22    1
     4    22    23    1
     5    23    35    1
     6    35    36    1
     7    36    37    2
     8    36    38    1
     9    38    39    1
    10    23    24    1
    11    24    25   am
    12    25    26    2
    13    25    28    1
    14    28    29    1
    15    29    30    1
    16    30    31   ar
    17    31    32   ar
    18    32    33   ar
    19    33    34   ar
    20     1     4    1
    21     4     5    1
    22     5    17    1
    23    17    18    1
    24    18    19    2
    25    18    20    1
    26    20    21    1
    27     5     6    1
    28     6     7   am
    29     7     8    2
    30     7    10    1
    31    10    11    1
    32    11    12    1
    33    12    13   ar
    34    13    14   ar
    35    14    15   ar
    36    15    16   ar
    37    34    30   ar
    38    16    12   ar
    39    24    27    1
    40     6     9    1
@<TRIPOS>MOLECULE
*****
 39 40 0 0 0
SMALL
GASTEIGER

@<TRIPOS>ATOM
      1 N          62.0554   89.2048   11.4516 N.3     1  UNL1       -0.2699
      2 C          59.8463   90.5302   11.1151 C.3     1  UNL1        0.0188
      3 C          60.8294   89.8528   12.0232 C.3     1  UNL1        0.0722
      4 C          63.2809   89.0386   12.3004 C.3     1  UNL1        0.0926
      5 C          63.6857   90.1236   13.2538 C.3     1  UNL1        0.1018
      6 N          64.4549   91.3112   12.7558 N.am    1  UNL1       -0.2703
      7 C          65.7154   91.7334   13.4505 C.2     1  UNL1        0.4020
      8 O          66.2067   90.9681   14.6433 O.2     1  UNL1       -0.2264
      9 H          64.1324   91.8135   11.9729 H       1  UNL1        0.1527
     10 O          66.4846   92.9210   12.9525 O.3     1  UNL1       -0.4274
     11 C          65.8743   93.8356   11.9321 C.3     1  UNL1        0.2621
     12 C          66.6469   94.2081   10.7015 C.ar    1  UNL1        0.1323
     13 N          67.6731   93.3575   10.0135 N.ar    1  UNL1       -0.2374
     14 C          68.1893   94.1203    8.8297 C.ar    1  UNL1        0.1062
     15 C          67.4822   95.4425    8.7860 C.ar    1  UNL1        0.0573
     16 S          66.5290   95.4967    9.9429 S.2     1  UNL1       -0.0666
     17 C          63.3212   90.0210   14.7052 C.3     1  UNL1        0.1306
     18 C          63.5602   88.7411   15.4499 C.2     1  UNL1        0.3188
     19 O          64.5658   87.7525   14.9387 O.2     1  UNL1       -0.2500
     20 O          62.7934   88.4497   16.7057 O.3     1  UNL1       -0.4443
     21 C          62.8584   87.0848   17.3245 C.3     1  UNL1        0.2556
     22 C          62.0559   88.7229   10.0311 C.3     1  UNL1        0.0926
     23 C          61.4356   87.4012    9.6873 C.3     1  UNL1        0.1018
     24 N          62.2895   86.1707    9.6052 N.am    1  UNL1       -0.2703
     25 C          62.5019   85.3224   10.8239 C.2     1  UNL1        0.4020
     26 O          61.8604   85.7045   12.1248 O.2     1  UNL1       -0.2264
     27 H          62.7106   85.9198    8.7513 H       1  UNL1        0.1527
     28 O          63.3558   84.0919   10.7416 O.3     1  UNL1       -0.4291
     29 C          63.9625   83.5154   11.9865 C.3     1  UNL1        0.2447
     30 C          63.2076   82.4947   12.7854 C.ar    1  UNL1        0.0714
     31 C          62.6227   82.7007   14.1512 C.ar    1  UNL1        0.1053
     32 N          61.9587   81.4222   14.5688 N.ar    1  UNL1       -0.2350
     33 C          62.1332   80.4259   13.4610 C.ar    1  UNL1        0.1343
     34 S          62.9051   81.0889   12.3588 S.2     1  UNL1       -0.0652
     35 C          59.9614   87.3099    9.4258 C.3     1  UNL1        0.1306
     36 C          59.4611   87.0455    8.0366 C.2     1  UNL1        0.3188
     37 O          59.7917   85.7514    7.3540 O.2     1  UNL1       -0.2500
     38 O          58.6302   88.0753    7.3301 O.3     1  UNL1       -0.4443
     39 C          59.2842   89.2865    6.7341 C.3     1  UNL1        0.2556
@<TRIPOS>BOND
     1     2     3    1
     2     3     1    1
     3     1    22    1
     4    22    23    1
     5    23    35    1
     6    35    36    1
     7    36    37    2
     8    36    38    1
     9    38    39    1
    10    23    24    1
    11    24    25   am
    12    25    26    2
    13    25    28    1
    14    28    29    1
    15    29    30    1
    16    30    31   ar
    17    31    32   ar
    18    32    33   ar
    19    33    34   ar
    20     1     4    1
    21     4     5    1
    22     5    17    1
    23    17    18    1
    24    18    19    2
    25    18    20    1
    26    20    21    1
    27     5     6    1
    28     6     7   am
    29     7     8    2
    30     7    10    1
    31    10    11    1
    32    11    12    1
    33    12    13   ar
    34    13    14   ar
    35    14    15   ar
    36    15    16   ar
    37    34    30   ar
    38    16    12   ar
    39    24    27    1
    40     6     9    1
@<TRIPOS>MOLECULE
*****
 39 40 0 0 0
SMALL
GASTEIGER

@<TRIPOS>ATOM
      1 N          63.9736   85.8296   14.8119 N.3     1  UNL1       -0.2699
      2 C          62.9103   86.1856   17.1555 C.3     1  UNL1        0.0188
      3 C          62.9461   85.4632   15.8414 C.3     1  UNL1        0.0722
      4 C          64.3059   84.8687   13.7090 C.3     1  UNL1        0.0926
      5 C          63.2232   84.0378   13.0866 C.3     1  UNL1        0.1018
      6 N          62.8087   84.2875   11.6668 N.am    1  UNL1       -0.2703
      7 C          63.6430   83.7589   10.5378 C.2     1  UNL1        0.4020
      8 O          64.8919   82.9807   10.8288 O.2     1  UNL1       -0.2264
      9 H          61.9890   84.7983   11.4759 H       1  UNL1        0.1527
     10 O          63.2285   84.0086    9.1181 O.3     1  UNL1       -0.4274
     11 C          63.0430   85.4138    8.6270 C.3     1  UNL1        0.2621
     12 C          61.6645   85.9958    8.5223 C.ar    1  UNL1        0.1323
     13 N          60.6836   85.7457    7.4153 N.ar    1  UNL1       -0.2374
     14 C          59.4378   86.5254    7.7150 C.ar    1  UNL1        0.1062
     15 C          59.6487   87.2575    9.0071 C.ar    1  UNL1        0.0573
     16 S          61.0249   86.9302    9.5060 S.2     1  UNL1       -0.0666
     17 C          62.5551   82.9572   13.8840 C.3     1  UNL1        0.1306
     18 C          62.9672   81.5266   13.7016 C.2     1  UNL1        0.3188
     19 O          64.3939   81.1921   13.3811 O.2     1  UNL1       -0.2500
     20 O          61.9528   80.4304   13.8398 O.3     1  UNL1       -0.4443
     21 C          60.5198   80.7667   14.1289 C.3     1  UNL1        0.2556
     22 C          64.6688   87.1567   14.8852 C.3     1  UNL1        0.0926
     23 C          64.1702   88.3107   14.0669 C.3     1  UNL1        0.1018
     24 N          64.4349   89.7175   14.5149 N.am    1  UNL1       -0.2703
     25 C          63.4763   90.4017   15.4439 C.2     1  UNL1        0.4020
     26 O          62.2530   89.6791   15.9249 O.2     1  UNL1       -0.2264
     27 H          65.2378   90.1918   14.1993 H       1  UNL1        0.1527
     28 O          63.7411   91.8086   15.8919 O.3     1  UNL1       -0.4291
     29 C          65.0475   92.1551   16.5425 C.3     1  UNL1        0.2447
     30 C          66.2486   92.4603   15.6973 C.ar    1  UNL1        0.0714
     31 C          66.2333   92.8233   14.2420 C.ar    1  UNL1        0.1053
     32 N          67.6511   93.0434   13.8043 N.ar    1  UNL1       -0.2350
     33 C          68.5426   92.8164   14.9891 C.ar    1  UNL1        0.1343
     34 S          67.6757   92.4560   16.1591 S.2     1  UNL1       -0.0652
     35 C          63.4070   88.0579   12.8006 C.3     1  UNL1        0.1306
     36 C          62.6954   89.1869   12.1157 C.2     1  UNL1        0.3188
     37 O          61.1961   89.2341   12.1086 O.2     1  UNL1       -0.2500
     38 O          63.4831   90.2687   11.4380 O.3     1  UNL1       -0.4443
     39 C          62.8948   91.0066   10.2722 C.3     1  UNL1        0.2556
@<TRIPOS>BOND
     1     2     3    1
     2     3     1    1
     3     1    22    1
     4    22    23    1
     5    23    35    1
     6    35    36    1
     7    36    37    2
     8    36    38    1
     9    38    39    1
    10    23    24    1
    11    24    25   am
    12    25    26    2
    13    25    28    1
    14    28    29    1
    15    29    30    1
    16    30    31   ar
    17    31    32   ar
    18    32    33   ar
    19    33    34   ar
    20     1     4    1
    21     4     5    1
    22     5    17    1
    23    17    18    1
    24    18    19    2
    25    18    20    1
    26    20    21    1
    27     5     6    1
    28     6     7   am
    29     7     8    2
    30     7    10    1
    31    10    11    1
    32    11    12    1
    33    12    13   ar
    34    13    14   ar
    35    14    15   ar
    36    15    16   ar
    37    34    30   ar
    38    16    12   ar
    39    24    27    1
    40     6     9    1
@<TRIPOS>MOLECULE
*****
 39 40 0 0 0
SMALL
GASTEIGER

@<TRIPOS>ATOM
      1 N          61.5777   90.1219   10.2787 N.3     1  UNL1       -0.2699
      2 C          59.6976   90.0298   12.0694 C.3     1  UNL1        0.0188
      3 C          60.2028   90.5054   10.7395 C.3     1  UNL1        0.0722
      4 C          61.8674   88.7048    9.8811 C.3     1  UNL1        0.0926
      5 C          60.9972   87.5917   10.3849 C.3     1  UNL1        0.1018
      6 N          61.3253   86.9109   11.6805 N.am    1  UNL1       -0.2703
      7 C          62.1778   85.6766   11.6844 C.2     1  UNL1        0.4020
      8 O          62.7021   85.1233   10.3925 O.2     1  UNL1       -0.2264
      9 H          60.9812   87.2741   12.5284 H       1  UNL1        0.1527
     10 O          62.5059   84.9958   12.9800 O.3     1  UNL1       -0.4274
     11 C          63.5725   83.9419   13.0244 C.3     1  UNL1        0.2621
     12 C          63.1924   82.4912   13.0556 C.ar    1  UNL1        0.1323
     13 N          62.9059   81.6811   14.2851 N.ar    1  UNL1       -0.2374
     14 C          62.5685   80.2851   13.8522 C.ar    1  UNL1        0.1062
     15 C          62.6465   80.2325   12.3552 C.ar    1  UNL1        0.0573
     16 S          63.0321   81.5959   11.8629 S.2     1  UNL1       -0.0666
     17 C          59.7989   87.1595    9.5929 C.3     1  UNL1        0.1306
     18 C          59.6749   87.5461    8.1489 C.2     1  UNL1        0.3188
     19 O          59.4855   86.4879    7.1028 O.2     1  UNL1       -0.2500
     20 O          59.7402   88.9909    7.7511 O.3     1  UNL1       -0.4443
     21 C          59.2711   89.4163    6.3913 C.3     1  UNL1        0.2556
     22 C          62.6630   91.1554   10.2153 C.3     1  UNL1        0.0926
     23 C          63.5463   91.3892   11.4049 C.3     1  UNL1        0.1018
     24 N          62.9877   91.2586   12.7909 N.am    1  UNL1       -0.2703
     25 C          63.0371   89.9366   13.4979 C.2     1  UNL1        0.4020
     26 O          63.6450   88.7452   12.8189 O.2     1  UNL1       -0.2264
     27 H          62.5888   92.0405   13.2365 H       1  UNL1        0.1527
     28 O          62.4785   89.8060   14.8839 O.3     1  UNL1       -0.4291
     29 C          63.3469   89.3013   15.9979 C.3     1  UNL1        0.2447
     30 C          63.2693   87.8631   16.4167 C.ar    1  UNL1        0.0714
     31 C          62.5306   87.3305   17.6086 C.ar    1  UNL1        0.1053
     32 N          62.7215   85.8432   17.6457 N.ar    1  UNL1       -0.2350
     33 C          63.5782   85.4565   16.4767 C.ar    1  UNL1        0.1343
     34 S          63.9168   86.7049   15.7171 S.2     1  UNL1       -0.0652
     35 C          64.9880   91.7536   11.2085 C.3     1  UNL1        0.1306
     36 C          65.6801   92.6384   12.2027 C.2     1  UNL1        0.3188
     37 O          65.3132   92.5647   13.6552 O.2     1  UNL1       -0.2500
     38 O          66.7390   93.5967   11.7442 O.3     1  UNL1       -0.4443
     39 C          66.4298   94.5996   10.6725 C.3     1  UNL1        0.2556
@<TRIPOS>BOND
     1     2     3    1
     2     3     1    1
     3     1    22    1
     4    22    23    1
     5    23    35    1
     6    35    36    1
     7    36    37    2
     8    36    38    1
     9    38    39    1
    10    23    24    1
    11    24    25   am
    12    25    26    2
    13    25    28    1
    14    28    29    1
    15    29    30    1
    16    30    31   ar
    17    31    32   ar
    18    32    33   ar
    19    33    34   ar
    20     1     4    1
    21     4     5    1
    22     5    17    1
    23    17    18    1
    24    18    19    2
    25    18    20    1
    26    20    21    1
    27     5     6    1
    28     6     7   am
    29     7     8    2
    30     7    10    1
    31    10    11    1
    32    11    12    1
    33    12    13   ar
    34    13    14   ar
    35    14    15   ar
    36    15    16   ar
    37    34    30   ar
    38    16    12   ar
    39    24    27    1
    40     6     9    1
@<TRIPOS>MOLECULE
*****
 39 40 0 0 0
SMALL
GASTEIGER

@<TRIPOS>ATOM
      1 N          63.9686   87.5483   15.1545 N.3     1  UNL1       -0.2699
      2 C          62.8169   86.8179   17.3658 C.3     1  UNL1        0.0188
      3 C          63.3344   87.9016   16.4670 C.3     1  UNL1        0.0722
      4 C          64.6284   86.2131   14.9756 C.3     1  UNL1        0.0926
      5 C          63.8477   85.0593   14.4192 C.3     1  UNL1        0.1018
      6 N          62.6860   85.3114   13.5044 N.am    1  UNL1       -0.2703
      7 C          62.7865   84.9589   12.0498 C.2     1  UNL1        0.4020
      8 O          64.0487   84.3543   11.5102 O.2     1  UNL1       -0.2264
      9 H          61.8576   85.7082   13.8586 H       1  UNL1        0.1527
     10 O          61.6248   85.2110   11.1350 O.3     1  UNL1       -0.4274
     11 C          61.6796   86.3376   10.1462 C.3     1  UNL1        0.2621
     12 C          60.9608   87.6226   10.4328 C.ar    1  UNL1        0.1323
     13 N          60.2975   87.9922   11.7264 N.ar    1  UNL1       -0.2374
     14 C          59.7059   89.3616   11.5692 C.ar    1  UNL1        0.1062
     15 C          60.0036   89.8383   10.1785 C.ar    1  UNL1        0.0573
     16 S          60.7792   88.7636    9.4762 S.2     1  UNL1       -0.0666
     17 C          64.2289   83.6536   14.7777 C.3     1  UNL1        0.1306
     18 C          63.4245   82.5014   14.2531 C.2     1  UNL1        0.3188
     19 O          64.0840   81.4455   13.4163 O.2     1  UNL1       -0.2500
     20 O          61.9605   82.4050   14.5652 O.3     1  UNL1       -0.4443
     21 C          61.1900   81.1780   14.1769 C.3     1  UNL1        0.2556
     22 C          63.9431   88.5302   14.0208 C.3     1  UNL1        0.0926
     23 C          64.2868   89.9693   14.2672 C.3     1  UNL1        0.1018
     24 N          64.9002   90.7918   13.1730 N.am    1  UNL1       -0.2703
     25 C          64.0523   91.2790   12.0356 C.2     1  UNL1        0.4020
     26 O          62.5909   90.9438   11.9924 O.2     1  UNL1       -0.2264
     27 H          65.8594   91.0119   13.2014 H       1  UNL1        0.1527
     28 O          64.6658   92.1015   10.9415 O.3     1  UNL1       -0.4291
     29 C          66.1177   92.4728   11.0066 C.3     1  UNL1        0.2447
     30 C          66.5869   93.7710   10.4198 C.ar    1  UNL1        0.0714
     31 C          67.6129   93.9295    9.3371 C.ar    1  UNL1        0.1053
     32 N          67.7726   95.3951    9.0607 N.ar    1  UNL1       -0.2350
     33 C          66.8453   96.1426    9.9727 C.ar    1  UNL1        0.1343
     34 S          66.1125   95.1387   10.8126 S.2     1  UNL1       -0.0652
     35 C          64.0170   90.5860   15.6077 C.3     1  UNL1        0.1306
     36 C          64.7658   91.8144   16.0325 C.2     1  UNL1        0.3188
     37 O          64.2619   92.6411   17.1782 O.2     1  UNL1       -0.2500
     38 O          66.0183   92.2160   15.3115 O.3     1  UNL1       -0.4443
     39 C          67.1909   92.7450   16.0829 C.3     1  UNL1        0.2556
@<TRIPOS>BOND
     1     2     3    1
     2     3     1    1
     3     1    22    1
     4    22    23    1
     5    23    35    1
     6    35    36    1
     7    36    37    2
     8    36    38    1
     9    38    39    1
    10    23    24    1
    11    24    25   am
    12    25    26    2
    13    25    28    1
    14    28    29    1
    15    29    30    1
    16    30    31   ar
    17    31    32   ar
    18    32    33   ar
    19    33    34   ar
    20     1     4    1
    21     4     5    1
    22     5    17    1
    23    17    18    1
    24    18    19    2
    25    18    20    1
    26    20    21    1
    27     5     6    1
    28     6     7   am
    29     7     8    2
    30     7    10    1
    31    10    11    1
    32    11    12    1
    33    12    13   ar
    34    13    14   ar
    35    14    15   ar
    36    15    16   ar
    37    34    30   ar
    38    16    12   ar
    39    24    27    1
    40     6     9    1
@<TRIPOS>MOLECULE
*****
 39 40 0 0 0
SMALL
GASTEIGER

@<TRIPOS>ATOM
      1 N          64.0356   87.5252   14.9521 N.3     1  UNL1       -0.2699
      2 C          62.8850   87.3835   17.2772 C.3     1  UNL1        0.0188
      3 C          63.4609   88.2029   16.1605 C.3     1  UNL1        0.0722
      4 C          64.1212   88.2624   13.6485 C.3     1  UNL1        0.0926
      5 C          63.8220   89.7313   13.5965 C.3     1  UNL1        0.1018
      6 N          64.8978   90.7275   13.9127 N.am    1  UNL1       -0.2703
      7 C          65.2513   91.7914   12.9161 C.2     1  UNL1        0.4020
      8 O          64.5289   91.8590   11.6033 O.2     1  UNL1       -0.2264
      9 H          65.3719   90.6831   14.7744 H       1  UNL1        0.1527
     10 O          66.3272   92.7876   13.2324 O.3     1  UNL1       -0.4274
     11 C          66.3084   94.1418   12.5874 C.3     1  UNL1        0.2621
     12 C          66.7451   94.2992   11.1610 C.ar    1  UNL1        0.1323
     13 N          67.6602   93.3763   10.4121 N.ar    1  UNL1       -0.2374
     14 C          67.8239   93.9138    9.0213 C.ar    1  UNL1        0.1062
     15 C          67.0100   95.1689    8.9107 C.ar    1  UNL1        0.0573
     16 S          66.3433   95.4071   10.2330 S.2     1  UNL1       -0.0666
     17 C          62.4468   90.2039   13.2282 C.3     1  UNL1        0.1306
     18 C          61.7534   89.6313   12.0277 C.2     1  UNL1        0.3188
     19 O          62.5315   89.3446   10.7778 O.2     1  UNL1       -0.2500
     20 O          60.2817   89.3453   12.0772 O.3     1  UNL1       -0.4443
     21 C          59.3005   90.3808   11.6138 C.3     1  UNL1        0.2556
     22 C          64.5249   86.1104   15.0472 C.3     1  UNL1        0.0926
     23 C          63.6334   84.9789   14.6290 C.3     1  UNL1        0.1018
     24 N          62.5843   85.1991   13.5797 N.am    1  UNL1       -0.2703
     25 C          62.8493   84.7989   12.1586 C.2     1  UNL1        0.4020
     26 O          64.1633   84.1784   11.7867 O.2     1  UNL1       -0.2264
     27 H          61.7219   85.6064   13.8238 H       1  UNL1        0.1527
     28 O          61.8002   85.0192   11.1094 O.3     1  UNL1       -0.4291
     29 C          62.0903   85.9031    9.9327 C.3     1  UNL1        0.2447
     30 C          60.9856   86.2894    8.9945 C.ar    1  UNL1        0.0714
     31 C          60.7041   85.6656    7.6597 C.ar    1  UNL1        0.1053
     32 N          59.5130   86.3580    7.0665 N.ar    1  UNL1       -0.2350
     33 C          59.0583   87.4097    8.0346 C.ar    1  UNL1        0.1343
     34 S          59.9685   87.3673    9.2262 S.2     1  UNL1       -0.0652
     35 C          63.7909   83.6273   15.2601 C.3     1  UNL1        0.1306
     36 C          63.1662   82.4232   14.6197 C.2     1  UNL1        0.3188
     37 O          64.0337   81.3159   14.0987 O.2     1  UNL1       -0.2500
     38 O          61.6741   82.3265   14.5003 O.3     1  UNL1       -0.4443
     39 C          61.0354   81.0258   14.1129 C.3     1  UNL1        0.2556
@<TRIPOS>BOND
     1     2     3    1
     2     3     1    1
     3     1    22    1
     4    22    23    1
     5    23    35    1
     6    35    36    1
     7    36    37    2
     8    36    38    1
     9    38    39    1
    10    23    24    1
    11    24    25   am
    12    25    26    2
    13    25    28    1
    14    28    29    1
    15    29    30    1
    16    30    31   ar
    17    31    32   ar
    18    32    33   ar
    19    33    34   ar
    20     1     4    1
    21     4     5    1
    22     5    17    1
    23    17    18    1
    24    18    19    2
    25    18    20    1
    26    20    21    1
    27     5     6    1
    28     6     7   am
    29     7     8    2
    30     7    10    1
    31    10    11    1
    32    11    12    1
    33    12    13   ar
    34    13    14   ar
    35    14    15   ar
    36    15    16   ar
    37    34    30   ar
    38    16    12   ar
    39    24    27    1
    40     6     9    1
@<TRIPOS>MOLECULE
*****
 39 40 0 0 0
SMALL
GASTEIGER

@<TRIPOS>ATOM
      1 N          61.8827   89.9159   11.0872 N.3     1  UNL1       -0.2699
      2 C          59.4231   90.6246   11.5324 C.3     1  UNL1        0.0188
      3 C          60.5689   89.6871   11.7737 C.3     1  UNL1        0.0722
      4 C          62.8813   90.8675   11.6769 C.3     1  UNL1        0.0926
      5 C          63.6435   90.4852   12.9109 C.3     1  UNL1        0.1018
      6 N          62.9887   89.6445   13.9666 N.am    1  UNL1       -0.2703
      7 C          62.9621   90.1152   15.3906 C.2     1  UNL1        0.4020
      8 O          63.5902   91.4266   15.7588 O.2     1  UNL1       -0.2264
      9 H          62.5765   88.7838   13.7249 H       1  UNL1        0.1527
     10 O          62.3073   89.2745   16.4463 O.3     1  UNL1       -0.4274
     11 C          63.0945   88.2114   17.1535 C.3     1  UNL1        0.2621
     12 C          63.1264   86.8143   16.6084 C.ar    1  UNL1        0.1323
     13 N          62.1392   85.7266   16.9122 N.ar    1  UNL1       -0.2374
     14 C          62.5537   84.4997   16.1554 C.ar    1  UNL1        0.1062
     15 C          63.7971   84.8291   15.3838 C.ar    1  UNL1        0.0573
     16 S          64.1510   86.2596   15.6638 S.2     1  UNL1       -0.0666
     17 C          65.0605   90.9437   13.0892 C.3     1  UNL1        0.1306
     18 C          65.4801   92.2947   12.5906 C.2     1  UNL1        0.3188
     19 O          65.8394   93.3759   13.5663 O.2     1  UNL1       -0.2500
     20 O          65.5404   92.5646   11.1163 O.3     1  UNL1       -0.4443
     21 C          66.0077   93.8995   10.6167 C.3     1  UNL1        0.2556
     22 C          62.1981   89.1934    9.8111 C.3     1  UNL1        0.0926
     23 C          61.4551   87.9397    9.4559 C.3     1  UNL1        0.1018
     24 N          62.1602   86.6161    9.4857 N.am    1  UNL1       -0.2703
     25 C          62.0720   85.7467   10.7049 C.2     1  UNL1        0.4020
     26 O          61.2787   86.2008   11.8942 O.2     1  UNL1       -0.2264
     27 H          62.6808   86.3180    8.7052 H       1  UNL1        0.1527
     28 O          62.7771   84.4230   10.7346 O.3     1  UNL1       -0.4291
     29 C          63.2006   83.8283   12.0449 C.3     1  UNL1        0.2447
     30 C          62.8809   82.3963   12.3569 C.ar    1  UNL1        0.0714
     31 C          63.1344   81.2208   11.4602 C.ar    1  UNL1        0.1053
     32 N          62.6617   79.9865   12.1694 N.ar    1  UNL1       -0.2350
     33 C          62.1161   80.3990   13.5044 C.ar    1  UNL1        0.1343
     34 S          62.2516   81.8885   13.6202 S.2     1  UNL1       -0.0652
     35 C          60.0071   88.0096    9.0707 C.3     1  UNL1        0.1306
     36 C          59.5499   87.4327    7.7638 C.2     1  UNL1        0.3188
     37 O          59.6859   85.9615    7.5048 O.2     1  UNL1       -0.2500
     38 O          58.9568   88.3270    6.7158 O.3     1  UNL1       -0.4443
     39 C          59.4600   89.7309    6.5554 C.3     1  UNL1        0.2556
@<TRIPOS>BOND
     1     2     3    1
     2     3     1    1
     3     1    22    1
     4    22    23    1
     5    23    35    1
     6    35    36    1
     7    36    37    2
     8    36    38    1
     9    38    39    1
    10    23    24    1
    11    24    25   am
    12    25    26    2
    13    25    28    1
    14    28    29    1
    15    29    30    1
    16    30    31   ar
    17    31    32   ar
    18    32    33   ar
    19    33    34   ar
    20     1     4    1
    21     4     5    1
    22     5    17    1
    23    17    18    1
    24    18    19    2
    25    18    20    1
    26    20    21    1
    27     5     6    1
    28     6     7   am
    29     7     8    2
    30     7    10    1
    31    10    11    1
    32    11    12    1
    33    12    13   ar
    34    13    14   ar
    35    14    15   ar
    36    15    16   ar
    37    34    30   ar
    38    16    12   ar
    39    24    27    1
    40     6     9    1
@<TRIPOS>MOLECULE
*****
 39 40 0 0 0
SMALL
GASTEIGER

@<TRIPOS>ATOM
      1 N          64.0637   90.6702   13.4967 N.3     1  UNL1       -0.2699
      2 C          63.6766   89.1765   15.5869 C.3     1  UNL1        0.0188
      3 C          63.1909   90.2277   14.6334 C.3     1  UNL1        0.0722
      4 C          65.5429   90.8158   13.6994 C.3     1  UNL1        0.0926
      5 C          66.2174   92.1196   13.3909 C.3     1  UNL1        0.1018
      6 N          66.7277   92.3909   12.0068 N.am    1  UNL1       -0.2703
      7 C          68.1578   92.0959   11.6634 C.2     1  UNL1        0.4020
      8 O          69.0775   91.5296   12.7043 O.2     1  UNL1       -0.2264
      9 H          66.1241   92.7626   11.3236 H       1  UNL1        0.1527
     10 O          68.6681   92.3672   10.2792 O.3     1  UNL1       -0.4274
     11 C          67.7903   93.0584    9.2784 C.3     1  UNL1        0.2621
     12 C          67.4129   94.4963    9.4784 C.ar    1  UNL1        0.1323
     13 N          66.9341   95.1122   10.7596 N.ar    1  UNL1       -0.2374
     14 C          66.6734   96.5673   10.5053 C.ar    1  UNL1        0.1062
     15 C          66.9912   96.8508    9.0670 C.ar    1  UNL1        0.0573
     16 S          67.4482   95.5708    8.4324 S.2     1  UNL1       -0.0666
     17 C          66.3816   93.1519   14.4666 C.3     1  UNL1        0.1306
     18 C          66.5881   92.7258   15.8899 C.2     1  UNL1        0.3188
     19 O          65.4192   92.6486   16.8268 O.2     1  UNL1       -0.2500
     20 O          67.9634   92.3770   16.3763 O.3     1  UNL1       -0.4443
     21 C          69.1516   93.1480   15.8826 C.3     1  UNL1        0.2556
     22 C          63.4575   90.9670   12.1571 C.3     1  UNL1        0.0926
     23 C          62.5812   89.9497   11.4885 C.3     1  UNL1        0.1018
     24 N          62.2826   88.6499   12.1751 N.am    1  UNL1       -0.2703
     25 C          62.3781   87.3606   11.4145 C.2     1  UNL1        0.4020
     26 O          62.7721   87.3710    9.9672 O.2     1  UNL1       -0.2264
     27 H          62.0240   88.6431   13.1250 H       1  UNL1        0.1527
     28 O          62.0795   86.0609   12.1012 O.3     1  UNL1       -0.4291
     29 C          62.9108   84.8479   11.8051 C.3     1  UNL1        0.2447
     30 C          62.8144   83.6389   12.6877 C.ar    1  UNL1        0.0714
     31 C          62.7332   83.6449   14.1855 C.ar    1  UNL1        0.1053
     32 N          62.6509   82.2213   14.6509 N.ar    1  UNL1       -0.2350
     33 C          62.6811   81.3354   13.4408 C.ar    1  UNL1        0.1343
     34 S          62.7822   82.2116   12.2274 S.2     1  UNL1       -0.0652
     35 C          62.0035   90.2321   10.1333 C.3     1  UNL1        0.1306
     36 C          60.5582   89.9396    9.8584 C.2     1  UNL1        0.3188
     37 O          60.1830   88.9142    8.8298 O.2     1  UNL1       -0.2500
     38 O          59.4882   90.6724   10.6120 O.3     1  UNL1       -0.4443
     39 C          59.1194   90.2413   12.0005 C.3     1  UNL1        0.2556
@<TRIPOS>BOND
     1     2     3    1
     2     3     1    1
     3     1    22    1
     4    22    23    1
     5    23    35    1
     6    35    36    1
     7    36    37    2
     8    36    38    1
     9    38    39    1
    10    23    24    1
    11    24    25   am
    12    25    26    2
    13    25    28    1
    14    28    29    1
    15    29    30    1
    16    30    31   ar
    17    31    32   ar
    18    32    33   ar
    19    33    34   ar
    20     1     4    1
    21     4     5    1
    22     5    17    1
    23    17    18    1
    24    18    19    2
    25    18    20    1
    26    20    21    1
    27     5     6    1
    28     6     7   am
    29     7     8    2
    30     7    10    1
    31    10    11    1
    32    11    12    1
    33    12    13   ar
    34    13    14   ar
    35    14    15   ar
    36    15    16   ar
    37    34    30   ar
    38    16    12   ar
    39    24    27    1
    40     6     9    1
