@<TRIPOS>MOLECULE
*****
 25 27 0 0 0
SMALL
GASTEIGER

@<TRIPOS>ATOM
      1 C          63.4333   89.0212   12.4571 C.2     1  UNL1       -0.0246
      2 C          63.4151   90.2866   11.6519 C.2     1  UNL1       -0.0421
      3 C          62.6722   90.0144   10.3776 C.3     1  UNL1        0.0480
      4 C          62.2313   88.5808   10.3952 C.ar    1  UNL1       -0.0184
      5 C          61.4622   87.7550    9.4070 C.ar    1  UNL1       -0.0040
      6 C          61.1636   86.3154    9.7040 C.ar    1  UNL1       -0.0003
      7 C          61.6339   85.7016   10.9893 C.ar    1  UNL1       -0.0000
      8 C          62.4030   86.5273   11.9775 C.ar    1  UNL1       -0.0006
      9 C          62.7016   87.9670   11.6804 C.ar    1  UNL1       -0.0079
     10 C          64.3611   87.4626   14.3173 C.3     1  UNL1        0.0111
     11 C          64.0711   88.8416   13.8028 C.3     1  UNL1        0.0634
     12 C          64.4190   90.0406   14.6341 C.ar    1  UNL1        0.0818
     13 C          63.4441   90.5574   15.6501 C.ar    1  UNL1        0.1139
     14 N          63.7920   91.7566   16.4813 N.ar    1  UNL1       -0.2394
     15 C          65.1150   92.4390   16.2966 C.ar    1  UNL1        0.1195
     16 C          66.0900   91.9222   15.2805 C.ar    1  UNL1        0.1191
     17 N          65.7420   90.7231   14.4493 N.ar    1  UNL1       -0.2446
     18 C          64.0315   91.5946   12.0510 C.3     1  UNL1        0.0394
     19 C          64.8766   92.3550   11.0725 C.3     1  UNL1        0.0765
     20 N          66.1986   92.9186   11.5024 N.3     1  UNL1       -0.2703
     21 C          66.2457   94.0930   12.4344 C.3     1  UNL1        0.0897
     22 C          67.4733   92.3078   11.0004 C.3     1  UNL1        0.0885
     23 C          67.9491   92.6028    9.6088 C.3     1  UNL1        0.1227
     24 C          67.7823   93.9786    9.0349 C.1     1  UNL1        0.0746
     25 N          67.6154   95.3544    8.4611 N.1     1  UNL1       -0.1958
@<TRIPOS>BOND
     1    11    10    1
     2    11     1    1
     3     1     2    2
     4     2    18    1
     5    18    19    1
     6    19    20    1
     7    20    21    1
     8    20    22    1
     9    22    23    1
    10    23    24    1
    11    24    25    3
    12     2     3    1
    13     3     4    1
    14     4     5   ar
    15     5     6   ar
    16     6     7   ar
    17     7     8   ar
    18     8     9   ar
    19    11    12    1
    20    12    13   ar
    21    13    14   ar
    22    14    15   ar
    23    15    16   ar
    24    16    17   ar
    25     9     1    1
    26    17    12   ar
    27     9     4   ar
@<TRIPOS>MOLECULE
*****
 25 27 0 0 0
SMALL
GASTEIGER

@<TRIPOS>ATOM
      1 C          63.6997   89.0796   13.5262 C.2     1  UNL1       -0.0246
      2 C          63.9415   87.6158   13.7470 C.2     1  UNL1       -0.0421
      3 C          63.3303   86.8669   12.6001 C.3     1  UNL1        0.0480
      4 C          62.7108   87.8678   11.6704 C.ar    1  UNL1       -0.0184
      5 C          61.9682   87.7107   10.3766 C.ar    1  UNL1       -0.0040
      6 C          61.4540   88.9211    9.6552 C.ar    1  UNL1       -0.0003
      7 C          61.6823   90.2887   10.2276 C.ar    1  UNL1       -0.0000
      8 C          62.4248   90.4458   11.5214 C.ar    1  UNL1       -0.0006
      9 C          62.9390   89.2354   12.2428 C.ar    1  UNL1       -0.0079
     10 C          63.5727   90.3048   15.8139 C.3     1  UNL1        0.0111
     11 C          64.1410   90.1923   14.4302 C.3     1  UNL1        0.0634
     12 C          65.1505   91.1926   13.9505 C.ar    1  UNL1        0.0818
     13 C          66.5323   91.2026   14.5342 C.ar    1  UNL1        0.1139
     14 N          67.5418   92.2030   14.0545 N.ar    1  UNL1       -0.2394
     15 C          67.1697   93.1934   12.9912 C.ar    1  UNL1        0.1195
     16 C          65.7879   93.1835   12.4075 C.ar    1  UNL1        0.1191
     17 N          64.7784   92.1831   12.8872 N.ar    1  UNL1       -0.2446
     18 C          64.6671   87.0077   14.9105 C.3     1  UNL1        0.0394
     19 C          64.3344   85.6149   15.3570 C.3     1  UNL1        0.0765
     20 N          63.0075   85.3288   15.9954 N.3     1  UNL1       -0.2703
     21 C          62.5760   86.1010   17.2069 C.3     1  UNL1        0.0897
     22 C          62.1121   84.2706   15.4224 C.3     1  UNL1        0.0885
     23 C          62.7019   83.1213   14.6600 C.3     1  UNL1        0.1227
     24 C          61.8563   81.9270   14.3307 C.1     1  UNL1        0.0746
     25 N          61.0106   80.7326   14.0014 N.1     1  UNL1       -0.1958
@<TRIPOS>BOND
     1    11    10    1
     2    11     1    1
     3     1     2    2
     4     2    18    1
     5    18    19    1
     6    19    20    1
     7    20    21    1
     8    20    22    1
     9    22    23    1
    10    23    24    1
    11    24    25    3
    12     2     3    1
    13     3     4    1
    14     4     5   ar
    15     5     6   ar
    16     6     7   ar
    17     7     8   ar
    18     8     9   ar
    19    11    12    1
    20    12    13   ar
    21    13    14   ar
    22    14    15   ar
    23    15    16   ar
    24    16    17   ar
    25     9     1    1
    26    17    12   ar
    27     9     4   ar
@<TRIPOS>MOLECULE
*****
 25 27 0 0 0
SMALL
GASTEIGER

@<TRIPOS>ATOM
      1 C          62.9086   85.8067   12.0101 C.2     1  UNL1       -0.0246
      2 C          63.5039   86.5547   13.1660 C.2     1  UNL1       -0.0421
      3 C          63.9587   85.5504   14.1831 C.3     1  UNL1        0.0480
      4 C          63.6445   84.1817   13.6558 C.ar    1  UNL1       -0.0184
      5 C          63.8655   82.8117   14.2250 C.ar    1  UNL1       -0.0040
      6 C          63.4376   81.6001   13.4513 C.ar    1  UNL1       -0.0003
      7 C          62.7886   81.7585   12.1082 C.ar    1  UNL1       -0.0000
      8 C          62.5676   83.1285   11.5390 C.ar    1  UNL1       -0.0006
      9 C          62.9955   84.3402   12.3127 C.ar    1  UNL1       -0.0079
     10 C          62.4843   85.7248    9.4481 C.3     1  UNL1        0.0111
     11 C          62.3283   86.4180   10.7692 C.3     1  UNL1        0.0634
     12 C          61.5921   87.7223   10.8494 C.ar    1  UNL1        0.0818
     13 C          62.1077   88.9214   10.1102 C.ar    1  UNL1        0.1139
     14 N          61.3714   90.2257   10.1904 N.ar    1  UNL1       -0.2394
     15 C          60.1194   90.3311   11.0098 C.ar    1  UNL1        0.1195
     16 C          59.6037   89.1321   11.7490 C.ar    1  UNL1        0.1191
     17 N          60.3400   87.8277   11.6688 N.ar    1  UNL1       -0.2446
     18 C          63.6233   88.0453   13.2841 C.3     1  UNL1        0.0394
     19 C          64.5218   88.6456   14.3244 C.3     1  UNL1        0.0765
     20 N          64.0154   89.7474   15.2073 N.3     1  UNL1       -0.2703
     21 C          64.5947   91.1264   15.0929 C.3     1  UNL1        0.0897
     22 C          62.9299   89.4703   16.2046 C.3     1  UNL1        0.0885
     23 C          63.1418   88.4445   17.2783 C.3     1  UNL1        0.1227
     24 C          62.4534   87.1147   17.1914 C.1     1  UNL1        0.0746
     25 N          61.7651   85.7847   17.1045 N.1     1  UNL1       -0.1958
@<TRIPOS>BOND
     1    11    10    1
     2    11     1    1
     3     1     2    2
     4     2    18    1
     5    18    19    1
     6    19    20    1
     7    20    21    1
     8    20    22    1
     9    22    23    1
    10    23    24    1
    11    24    25    3
    12     2     3    1
    13     3     4    1
    14     4     5   ar
    15     5     6   ar
    16     6     7   ar
    17     7     8   ar
    18     8     9   ar
    19    11    12    1
    20    12    13   ar
    21    13    14   ar
    22    14    15   ar
    23    15    16   ar
    24    16    17   ar
    25     9     1    1
    26    17    12   ar
    27     9     4   ar
@<TRIPOS>MOLECULE
*****
 25 27 0 0 0
SMALL
GASTEIGER

@<TRIPOS>ATOM
      1 C          61.4267   88.1649   10.8531 C.2     1  UNL1       -0.0246
      2 C          62.2053   86.9388   11.2278 C.2     1  UNL1       -0.0421
      3 C          61.9734   85.9012   10.1698 C.3     1  UNL1        0.0480
      4 C          61.0515   86.4859    9.1411 C.ar    1  UNL1       -0.0184
      5 C          60.4761   85.9251    7.8745 C.ar    1  UNL1       -0.0040
      6 C          59.5627   86.7635    7.0302 C.ar    1  UNL1       -0.0003
      7 C          59.2248   88.1626    7.4525 C.ar    1  UNL1       -0.0000
      8 C          59.8002   88.7233    8.7191 C.ar    1  UNL1       -0.0006
      9 C          60.7136   87.8850    9.5634 C.ar    1  UNL1       -0.0079
     10 C          60.0874   89.8754   12.2781 C.3     1  UNL1        0.0111
     11 C          61.3709   89.4460   11.6313 C.3     1  UNL1        0.0634
     12 C          62.5985   90.2978   11.7628 C.ar    1  UNL1        0.0818
     13 C          63.1171   91.0545   10.5760 C.ar    1  UNL1        0.1139
     14 N          64.3447   91.9062   10.7075 N.ar    1  UNL1       -0.2394
     15 C          65.0539   92.0014   12.0258 C.ar    1  UNL1        0.1195
     16 C          64.5353   91.2448   13.2127 C.ar    1  UNL1        0.1191
     17 N          63.3077   90.3930   13.0812 N.ar    1  UNL1       -0.2446
     18 C          63.0649   86.7786   12.4466 C.3     1  UNL1        0.0394
     19 C          63.4027   85.4070   12.9511 C.3     1  UNL1        0.0765
     20 N          63.3353   85.1104   14.4199 N.3     1  UNL1       -0.2703
     21 C          64.0768   85.9764   15.3947 C.3     1  UNL1        0.0897
     22 C          62.5264   83.9478   14.9140 C.3     1  UNL1        0.0885
     23 C          62.6979   82.5951   14.2887 C.3     1  UNL1        0.1227
     24 C          61.5507   81.6290   14.2650 C.1     1  UNL1        0.0746
     25 N          60.4035   80.6628   14.2412 N.1     1  UNL1       -0.1958
@<TRIPOS>BOND
     1    11    10    1
     2    11     1    1
     3     1     2    2
     4     2    18    1
     5    18    19    1
     6    19    20    1
     7    20    21    1
     8    20    22    1
     9    22    23    1
    10    23    24    1
    11    24    25    3
    12     2     3    1
    13     3     4    1
    14     4     5   ar
    15     5     6   ar
    16     6     7   ar
    17     7     8   ar
    18     8     9   ar
    19    11    12    1
    20    12    13   ar
    21    13    14   ar
    22    14    15   ar
    23    15    16   ar
    24    16    17   ar
    25     9     1    1
    26    17    12   ar
    27     9     4   ar
@<TRIPOS>MOLECULE
*****
 25 27 0 0 0
SMALL
GASTEIGER

@<TRIPOS>ATOM
      1 C          63.4553   90.0715   12.6879 C.2     1  UNL1       -0.0246
      2 C          64.0362   89.6917   14.0176 C.2     1  UNL1       -0.0421
      3 C          65.2366   90.5570   14.2632 C.3     1  UNL1        0.0480
      4 C          65.3976   91.4716   13.0853 C.ar    1  UNL1       -0.0184
      5 C          66.4044   92.5389   12.7735 C.ar    1  UNL1       -0.0040
      6 C          66.3102   93.3061   11.4880 C.ar    1  UNL1       -0.0003
      7 C          65.2093   93.0061   10.5144 C.ar    1  UNL1       -0.0000
      8 C          64.2025   91.9389   10.8262 C.ar    1  UNL1       -0.0006
      9 C          64.2967   91.1716   12.1116 C.ar    1  UNL1       -0.0079
     10 C          60.9280   90.1747   12.0943 C.3     1  UNL1        0.0111
     11 C          62.2455   89.4589   12.0468 C.3     1  UNL1        0.0634
     12 C          62.3529   88.1307   11.3584 C.ar    1  UNL1        0.0818
     13 C          62.2118   88.0450    9.8675 C.ar    1  UNL1        0.1139
     14 N          62.3193   86.7167    9.1791 N.ar    1  UNL1       -0.2394
     15 C          62.5678   85.4740    9.9814 C.ar    1  UNL1        0.1195
     16 C          62.7089   85.5595   11.4724 C.ar    1  UNL1        0.1191
     17 N          62.6014   86.8879   12.1608 N.ar    1  UNL1       -0.2446
     18 C          63.5093   88.6325   14.9398 C.3     1  UNL1        0.0394
     19 C          64.2758   87.3578   15.1337 C.3     1  UNL1        0.0765
     20 N          63.6231   86.1844   15.8024 N.3     1  UNL1       -0.2703
     21 C          62.9624   86.3546   17.1383 C.3     1  UNL1        0.0897
     22 C          63.6310   84.8410   15.1353 C.3     1  UNL1        0.0885
     23 C          62.3472   84.0876   14.9509 C.3     1  UNL1        0.1227
     24 C          62.3766   82.6206   14.6393 C.1     1  UNL1        0.0746
     25 N          62.4060   81.1536   14.3276 N.1     1  UNL1       -0.1958
@<TRIPOS>BOND
     1    11    10    1
     2    11     1    1
     3     1     2    2
     4     2    18    1
     5    18    19    1
     6    19    20    1
     7    20    21    1
     8    20    22    1
     9    22    23    1
    10    23    24    1
    11    24    25    3
    12     2     3    1
    13     3     4    1
    14     4     5   ar
    15     5     6   ar
    16     6     7   ar
    17     7     8   ar
    18     8     9   ar
    19    11    12    1
    20    12    13   ar
    21    13    14   ar
    22    14    15   ar
    23    15    16   ar
    24    16    17   ar
    25     9     1    1
    26    17    12   ar
    27     9     4   ar
@<TRIPOS>MOLECULE
*****
 25 27 0 0 0
SMALL
GASTEIGER

@<TRIPOS>ATOM
      1 C          63.7427   89.0281   13.5922 C.2     1  UNL1       -0.0246
      2 C          63.0486   89.2001   12.2736 C.2     1  UNL1       -0.0421
      3 C          62.7842   87.8364   11.7077 C.3     1  UNL1        0.0480
      4 C          63.3149   86.8216   12.6765 C.ar    1  UNL1       -0.0184
      5 C          63.3352   85.3220   12.6486 C.ar    1  UNL1       -0.0040
      6 C          63.9479   84.5590   13.7854 C.ar    1  UNL1       -0.0003
      7 C          64.5403   85.2955   14.9501 C.ar    1  UNL1       -0.0000
      8 C          64.5199   86.7951   14.9780 C.ar    1  UNL1       -0.0006
      9 C          63.9072   87.5581   13.8412 C.ar    1  UNL1       -0.0079
     10 C          63.6107   90.2540   15.8792 C.3     1  UNL1        0.0111
     11 C          64.1931   90.1323   14.5021 C.3     1  UNL1        0.0634
     12 C          65.2258   91.1148   14.0351 C.ar    1  UNL1        0.0818
     13 C          66.6336   91.0223   14.5446 C.ar    1  UNL1        0.1139
     14 N          67.6663   92.0048   14.0776 N.ar    1  UNL1       -0.2394
     15 C          67.2914   93.0798   13.1011 C.ar    1  UNL1        0.1195
     16 C          65.8836   93.1724   12.5915 C.ar    1  UNL1        0.1191
     17 N          64.8509   92.1899   13.0586 N.ar    1  UNL1       -0.2446
     18 C          62.6831   90.5065   11.6334 C.3     1  UNL1        0.0394
     19 C          61.9629   90.5214   10.3177 C.3     1  UNL1        0.0765
     20 N          60.5443   90.0414   10.2338 N.3     1  UNL1       -0.2703
     21 C          59.5343   90.5068   11.2405 C.3     1  UNL1        0.0897
     22 C          60.1356   89.0961    9.1433 C.3     1  UNL1        0.0885
     23 C          59.9126   87.6454    9.4528 C.3     1  UNL1        0.1227
     24 C          59.9636   86.6273    8.3524 C.1     1  UNL1        0.0746
     25 N          60.0147   85.6092    7.2520 N.1     1  UNL1       -0.1958
@<TRIPOS>BOND
     1    11    10    1
     2    11     1    1
     3     1     2    2
     4     2    18    1
     5    18    19    1
     6    19    20    1
     7    20    21    1
     8    20    22    1
     9    22    23    1
    10    23    24    1
    11    24    25    3
    12     2     3    1
    13     3     4    1
    14     4     5   ar
    15     5     6   ar
    16     6     7   ar
    17     7     8   ar
    18     8     9   ar
    19    11    12    1
    20    12    13   ar
    21    13    14   ar
    22    14    15   ar
    23    15    16   ar
    24    16    17   ar
    25     9     1    1
    26    17    12   ar
    27     9     4   ar
@<TRIPOS>MOLECULE
*****
 25 27 0 0 0
SMALL
GASTEIGER

@<TRIPOS>ATOM
      1 C          66.0832   92.3659   11.9093 C.2     1  UNL1       -0.0246
      2 C          64.7509   91.6811   11.8331 C.2     1  UNL1       -0.0421
      3 C          64.2882   91.4104   13.2341 C.3     1  UNL1        0.0480
      4 C          65.3346   91.9279   14.1760 C.ar    1  UNL1       -0.0184
      5 C          65.4205   91.9377   15.6735 C.ar    1  UNL1       -0.0040
      6 C          66.6158   92.5381   16.3522 C.ar    1  UNL1       -0.0003
      7 C          67.7252   93.1287   15.5334 C.ar    1  UNL1       -0.0000
      8 C          67.6393   93.1189   14.0359 C.ar    1  UNL1       -0.0006
      9 C          66.4440   92.5185   13.3572 C.ar    1  UNL1       -0.0079
     10 C          67.9816   91.9258   10.1909 C.3     1  UNL1        0.0111
     11 C          66.9097   92.8188   10.7423 C.3     1  UNL1        0.0634
     12 C          66.6646   94.1644   10.1267 C.ar    1  UNL1        0.0818
     13 C          65.6574   95.0951   10.7346 C.ar    1  UNL1        0.1139
     14 N          65.4123   96.4407   10.1189 N.ar    1  UNL1       -0.2394
     15 C          66.1743   96.8559    8.8955 C.ar    1  UNL1        0.1195
     16 C          67.1815   95.9253    8.2875 C.ar    1  UNL1        0.1191
     17 N          67.4266   94.5796    8.9032 N.ar    1  UNL1       -0.2446
     18 C          64.0111   91.3287   10.5767 C.3     1  UNL1        0.0394
     19 C          62.5156   91.2145   10.5939 C.3     1  UNL1        0.0765
     20 N          61.8678   89.8847   10.8431 N.3     1  UNL1       -0.2703
     21 C          60.7145   89.7792   11.7964 C.3     1  UNL1        0.0897
     22 C          62.3733   88.6605   10.1390 C.3     1  UNL1        0.0885
     23 C          61.4209   87.5642    9.7634 C.3     1  UNL1        0.1227
     24 C          60.3542   87.8157    8.7393 C.1     1  UNL1        0.0746
     25 N          59.2875   88.0672    7.7150 N.1     1  UNL1       -0.1958
@<TRIPOS>BOND
     1    11    10    1
     2    11     1    1
     3     1     2    2
     4     2    18    1
     5    18    19    1
     6    19    20    1
     7    20    21    1
     8    20    22    1
     9    22    23    1
    10    23    24    1
    11    24    25    3
    12     2     3    1
    13     3     4    1
    14     4     5   ar
    15     5     6   ar
    16     6     7   ar
    17     7     8   ar
    18     8     9   ar
    19    11    12    1
    20    12    13   ar
    21    13    14   ar
    22    14    15   ar
    23    15    16   ar
    24    16    17   ar
    25     9     1    1
    26    17    12   ar
    27     9     4   ar
@<TRIPOS>MOLECULE
*****
 25 27 0 0 0
SMALL
GASTEIGER

@<TRIPOS>ATOM
      1 C          61.3648   88.0878   10.7870 C.2     1  UNL1       -0.0246
      2 C          62.0882   86.8099   11.0929 C.2     1  UNL1       -0.0421
      3 C          61.8403   85.8550    9.9630 C.3     1  UNL1        0.0480
      4 C          60.9636   86.5427    8.9588 C.ar    1  UNL1       -0.0184
      5 C          60.3950   86.0907    7.6465 C.ar    1  UNL1       -0.0040
      6 C          59.5325   87.0186    6.8434 C.ar    1  UNL1       -0.0003
      7 C          59.2385   88.3985    7.3527 C.ar    1  UNL1       -0.0000
      8 C          59.8072   88.8506    8.6650 C.ar    1  UNL1       -0.0006
      9 C          60.6697   87.9227    9.4681 C.ar    1  UNL1       -0.0079
     10 C          60.1128   89.6500   12.4430 C.3     1  UNL1        0.0111
     11 C          61.3406   89.3153   11.6488 C.3     1  UNL1        0.0634
     12 C          62.5439   90.2081   11.7164 C.ar    1  UNL1        0.0818
     13 C          63.0012   90.9446   10.4922 C.ar    1  UNL1        0.1139
     14 N          64.2046   91.8374   10.5599 N.ar    1  UNL1       -0.2394
     15 C          64.9508   91.9939   11.8516 C.ar    1  UNL1        0.1195
     16 C          64.4936   91.2574   13.0758 C.ar    1  UNL1        0.1191
     17 N          63.2902   90.3646   13.0082 N.ar    1  UNL1       -0.2446
     18 C          62.9146   86.5351   12.3143 C.3     1  UNL1        0.0394
     19 C          62.7395   85.2480   13.0643 C.3     1  UNL1        0.0765
     20 N          63.9355   84.4075   13.4010 N.3     1  UNL1       -0.2703
     21 C          64.4326   83.3844   12.4230 C.3     1  UNL1        0.0897
     22 C          64.6344   84.5901   14.7155 C.3     1  UNL1        0.0885
     23 C          64.3995   85.8318   15.5237 C.3     1  UNL1        0.1227
     24 C          63.2215   85.9130   16.4486 C.1     1  UNL1        0.0746
     25 N          62.0433   85.9943   17.3736 N.1     1  UNL1       -0.1958
@<TRIPOS>BOND
     1    11    10    1
     2    11     1    1
     3     1     2    2
     4     2    18    1
     5    18    19    1
     6    19    20    1
     7    20    21    1
     8    20    22    1
     9    22    23    1
    10    23    24    1
    11    24    25    3
    12     2     3    1
    13     3     4    1
    14     4     5   ar
    15     5     6   ar
    16     6     7   ar
    17     7     8   ar
    18     8     9   ar
    19    11    12    1
    20    12    13   ar
    21    13    14   ar
    22    14    15   ar
    23    15    16   ar
    24    16    17   ar
    25     9     1    1
    26    17    12   ar
    27     9     4   ar
@<TRIPOS>MOLECULE
*****
 25 27 0 0 0
SMALL
GASTEIGER

@<TRIPOS>ATOM
      1 C          63.5778   89.3628   12.5710 C.2     1  UNL1       -0.0246
      2 C          63.4530   90.5274   11.6340 C.2     1  UNL1       -0.0421
      3 C          62.7108   90.0644   10.4154 C.3     1  UNL1        0.0480
      4 C          62.3770   88.6136   10.5994 C.ar    1  UNL1       -0.0184
      5 C          61.6543   87.6314    9.7259 C.ar    1  UNL1       -0.0040
      6 C          61.4675   86.2156   10.1847 C.ar    1  UNL1       -0.0003
      7 C          62.0033   85.7820   11.5170 C.ar    1  UNL1       -0.0000
      8 C          62.7259   86.7642   12.3904 C.ar    1  UNL1       -0.0006
      9 C          62.9128   88.1800   11.9316 C.ar    1  UNL1       -0.0079
     10 C          65.2773   90.4255   14.2241 C.3     1  UNL1        0.0111
     11 C          64.2496   89.3782   13.9121 C.3     1  UNL1        0.0634
     12 C          63.8939   88.3466   14.9411 C.ar    1  UNL1        0.0818
     13 C          63.0896   88.7353   16.1461 C.ar    1  UNL1        0.1139
     14 N          62.7340   87.7035   17.1751 N.ar    1  UNL1       -0.2394
     15 C          63.1825   86.2830   16.9992 C.ar    1  UNL1        0.1195
     16 C          63.9868   85.8942   15.7942 C.ar    1  UNL1        0.1191
     17 N          64.3425   86.9260   14.7652 N.ar    1  UNL1       -0.2446
     18 C          63.9781   91.9119   11.8734 C.3     1  UNL1        0.0394
     19 C          65.0824   92.4540   11.0152 C.3     1  UNL1        0.0765
     20 N          65.8317   93.6809   11.4435 N.3     1  UNL1       -0.2703
     21 C          66.3521   93.7904   12.8461 C.3     1  UNL1        0.0897
     22 C          66.0605   94.7982   10.4693 C.3     1  UNL1        0.0885
     23 C          67.3493   94.8753    9.7056 C.3     1  UNL1        0.1227
     24 C          67.9612   93.6284    9.1394 C.1     1  UNL1        0.0746
     25 N          68.5733   92.3815    8.5731 N.1     1  UNL1       -0.1958
@<TRIPOS>BOND
     1    11    10    1
     2    11     1    1
     3     1     2    2
     4     2    18    1
     5    18    19    1
     6    19    20    1
     7    20    21    1
     8    20    22    1
     9    22    23    1
    10    23    24    1
    11    24    25    3
    12     2     3    1
    13     3     4    1
    14     4     5   ar
    15     5     6   ar
    16     6     7   ar
    17     7     8   ar
    18     8     9   ar
    19    11    12    1
    20    12    13   ar
    21    13    14   ar
    22    14    15   ar
    23    15    16   ar
    24    16    17   ar
    25     9     1    1
    26    17    12   ar
    27     9     4   ar
