@<TRIPOS>MOLECULE
*****
 31 35 0 0 0
SMALL
GASTEIGER

@<TRIPOS>ATOM
      1 O          63.3310   87.2189   12.9455 O.2     1  UNL1       -0.2699
      2 C          62.7588   86.4173   11.8142 C.2     1  UNL1        0.2506
      3 N          61.7467   87.0339   10.8948 N.am    1  UNL1       -0.2723
      4 C          61.1745   86.2322    9.7635 C.3     1  UNL1        0.1257
      5 C          60.1623   86.8489    8.8441 C.3     1  UNL1        0.1637
      6 O          59.7224   88.2671    9.0560 O.3     1  UNL1       -0.3502
      7 C          60.2946   89.0688   10.1873 C.3     1  UNL1        0.1622
      8 C          61.3067   88.4522   11.1067 C.3     1  UNL1        0.1096
      9 C          63.1988   84.9989   11.6023 C.ar    1  UNL1        0.0729
     10 C          63.3831   84.4708   10.2105 C.ar    1  UNL1        0.0061
     11 C          63.8230   83.0526    9.9986 C.ar    1  UNL1        0.0002
     12 C          64.0787   82.1624   11.1785 C.ar    1  UNL1        0.0016
     13 C          63.8944   82.6905   12.5703 C.ar    1  UNL1        0.0211
     14 C          63.4545   84.1088   12.7822 C.ar    1  UNL1        0.1072
     15 N          63.2702   84.6369   14.1740 N.ar    1  UNL1       -0.1477
     16 N          61.9954   84.6138   14.9643 N.ar    1  UNL1       -0.1447
     17 C          62.2657   85.2434   16.2986 C.ar    1  UNL1        0.1446
     18 C          63.7075   85.6556   16.3331 C.ar    1  UNL1        0.1446
     19 N          64.3283   85.2808   15.0201 N.ar    1  UNL1       -0.1447
     20 C          61.8789   89.2539   12.2380 C.3     1  UNL1        0.0488
     21 C          62.9580   90.2614   11.9727 C.ar    1  UNL1       -0.0189
     22 C          63.0762   90.8945   10.6181 C.ar    1  UNL1       -0.0041
     23 C          64.1554   91.9021   10.3527 C.ar    1  UNL1        0.0012
     24 C          65.1162   92.2765   11.4420 C.ar    1  UNL1        0.0191
     25 C          64.9979   91.6433   12.7967 C.ar    1  UNL1        0.0825
     26 C          63.9189   90.6358   13.0620 C.ar    1  UNL1        0.0149
     27 N          65.9588   92.0177   13.8860 N.ar    1  UNL1       -0.2282
     28 C          67.4547   91.9414   13.8068 C.ar    1  UNL1        0.1020
     29 C          68.0129   92.4106   15.1177 C.ar    1  UNL1        0.0431
     30 C          66.8619   92.7770   16.0070 C.ar    1  UNL1        0.1221
     31 N          65.5923   92.5342   15.2458 N.ar    1  UNL1       -0.1635
@<TRIPOS>BOND
     1     1     2    2
     2     2     9    1
     3     9    10   ar
     4    10    11   ar
     5    11    12   ar
     6    12    13   ar
     7    13    14   ar
     8    14    15    1
     9    15    16   ar
    10    16    17   ar
    11    17    18   ar
    12    18    19   ar
    13     2     3   am
    14     3     4    1
    15     4     5    1
    16     5     6    1
    17     6     7    1
    18     7     8    1
    19     8    20    1
    20    20    21    1
    21    21    22   ar
    22    22    23   ar
    23    23    24   ar
    24    24    25   ar
    25    25    27    1
    26    27    28   ar
    27    28    29   ar
    28    29    30   ar
    29    30    31   ar
    30    25    26   ar
    31    14     9   ar
    32    19    15   ar
    33     8     3    1
    34    26    21   ar
    35    31    27   ar
@<TRIPOS>MOLECULE
*****
 31 35 0 0 0
SMALL
GASTEIGER

@<TRIPOS>ATOM
      1 O          63.6435   87.4485   13.7064 O.2     1  UNL1       -0.2699
      2 C          63.0513   87.0435   12.3891 C.2     1  UNL1        0.2506
      3 N          62.4054   88.0723   11.5091 N.am    1  UNL1       -0.2723
      4 C          61.8132   87.6673   10.1918 C.3     1  UNL1        0.1257
      5 C          61.1673   88.6962    9.3119 C.3     1  UNL1        0.1637
      6 O          61.1136   90.1300    9.7492 O.3     1  UNL1       -0.3502
      7 C          61.7058   90.5350   11.0665 C.3     1  UNL1        0.1622
      8 C          62.3517   89.5062   11.9465 C.3     1  UNL1        0.1096
      9 C          63.1050   85.6096   11.9517 C.ar    1  UNL1        0.0729
     10 C          63.1361   85.2719   10.4906 C.ar    1  UNL1        0.0061
     11 C          63.1898   83.8381   10.0532 C.ar    1  UNL1        0.0002
     12 C          63.2124   82.7421   11.0770 C.ar    1  UNL1        0.0016
     13 C          63.1813   83.0798   12.5382 C.ar    1  UNL1        0.0211
     14 C          63.1276   84.5136   12.9755 C.ar    1  UNL1        0.1072
     15 N          63.0965   84.8514   14.4367 N.ar    1  UNL1       -0.1477
     16 N          64.2800   85.2171   15.2825 N.ar    1  UNL1       -0.1447
     17 C          63.7914   85.4745   16.6771 C.ar    1  UNL1        0.1446
     18 C          62.3058   85.2678   16.6933 C.ar    1  UNL1        0.1446
     19 N          61.8763   84.8827   15.3086 N.ar    1  UNL1       -0.1447
     20 C          62.9439   89.9112   13.2638 C.3     1  UNL1        0.0488
     21 C          64.2319   90.6789   13.3027 C.ar    1  UNL1       -0.0189
     22 C          65.1711   90.5097   14.4600 C.ar    1  UNL1       -0.0041
     23 C          66.4592   91.2775   14.4990 C.ar    1  UNL1        0.0012
     24 C          66.8080   92.2143   13.3807 C.ar    1  UNL1        0.0191
     25 C          65.8687   92.3835   12.2234 C.ar    1  UNL1        0.0825
     26 C          64.5807   91.6157   12.1844 C.ar    1  UNL1        0.0149
     27 N          66.2176   93.3203   11.1051 N.ar    1  UNL1       -0.2282
     28 C          67.1690   93.0358    9.9808 C.ar    1  UNL1        0.1020
     29 C          67.2157   94.2458    9.0956 C.ar    1  UNL1        0.0431
     30 C          66.2931   95.2782    9.6727 C.ar    1  UNL1        0.1221
     31 N          65.6762   94.7063   10.9146 N.ar    1  UNL1       -0.1635
@<TRIPOS>BOND
     1     1     2    2
     2     2     9    1
     3     9    10   ar
     4    10    11   ar
     5    11    12   ar
     6    12    13   ar
     7    13    14   ar
     8    14    15    1
     9    15    16   ar
    10    16    17   ar
    11    17    18   ar
    12    18    19   ar
    13     2     3   am
    14     3     4    1
    15     4     5    1
    16     5     6    1
    17     6     7    1
    18     7     8    1
    19     8    20    1
    20    20    21    1
    21    21    22   ar
    22    22    23   ar
    23    23    24   ar
    24    24    25   ar
    25    25    27    1
    26    27    28   ar
    27    28    29   ar
    28    29    30   ar
    29    30    31   ar
    30    25    26   ar
    31    14     9   ar
    32    19    15   ar
    33     8     3    1
    34    26    21   ar
    35    31    27   ar
@<TRIPOS>MOLECULE
*****
 31 35 0 0 0
SMALL
GASTEIGER

@<TRIPOS>ATOM
      1 O          63.7171   88.5327   12.2916 O.2     1  UNL1       -0.2699
      2 C          63.5617   87.5201   13.3873 C.2     1  UNL1        0.2506
      3 N          63.4297   87.9708   14.8119 N.am    1  UNL1       -0.2723
      4 C          63.2743   86.9582   15.9076 C.3     1  UNL1        0.1257
      5 C          63.1422   87.4090   17.3322 C.3     1  UNL1        0.1637
      6 O          63.1655   88.8723   17.6610 O.3     1  UNL1       -0.3502
      7 C          63.3209   89.8849   16.5653 C.3     1  UNL1        0.1622
      8 C          63.4530   89.4342   15.1408 C.3     1  UNL1        0.1096
      9 C          63.5384   86.0567   13.0584 C.ar    1  UNL1        0.0729
     10 C          64.3597   85.0939   13.8636 C.ar    1  UNL1        0.0061
     11 C          64.3364   83.6306   13.5348 C.ar    1  UNL1        0.0002
     12 C          63.4919   83.1302   12.4006 C.ar    1  UNL1        0.0016
     13 C          62.6706   84.0930   11.5954 C.ar    1  UNL1        0.0211
     14 C          62.6939   85.5563   11.9243 C.ar    1  UNL1        0.1072
     15 N          61.8726   86.5192   11.1190 N.ar    1  UNL1       -0.1477
     16 N          62.1253   86.9175    9.6951 N.ar    1  UNL1       -0.1447
     17 C          61.0634   87.8973    9.2924 C.ar    1  UNL1        0.1446
     18 C          60.1542   88.1045   10.4673 C.ar    1  UNL1        0.1446
     19 N          60.6544   87.2528   11.5962 N.ar    1  UNL1       -0.1447
     20 C          63.6083   90.4468   14.0451 C.3     1  UNL1        0.0488
     21 C          64.9251   91.1357   13.8417 C.ar    1  UNL1       -0.0189
     22 C          66.0265   90.9594   14.8446 C.ar    1  UNL1       -0.0041
     23 C          67.3434   91.6483   14.6413 C.ar    1  UNL1        0.0012
     24 C          67.5588   92.5135   13.4350 C.ar    1  UNL1        0.0191
     25 C          66.4573   92.6897   12.4321 C.ar    1  UNL1        0.0825
     26 C          65.1405   92.0008   12.6355 C.ar    1  UNL1        0.0149
     27 N          66.6727   93.5549   11.2258 N.ar    1  UNL1       -0.2282
     28 C          66.0167   94.8776   10.9609 C.ar    1  UNL1        0.1020
     29 C          66.5205   95.3895    9.6441 C.ar    1  UNL1        0.0431
     30 C          67.4879   94.3831    9.0950 C.ar    1  UNL1        0.1221
     31 N          67.5821   93.2493   10.0726 N.ar    1  UNL1       -0.1635
@<TRIPOS>BOND
     1     1     2    2
     2     2     9    1
     3     9    10   ar
     4    10    11   ar
     5    11    12   ar
     6    12    13   ar
     7    13    14   ar
     8    14    15    1
     9    15    16   ar
    10    16    17   ar
    11    17    18   ar
    12    18    19   ar
    13     2     3   am
    14     3     4    1
    15     4     5    1
    16     5     6    1
    17     6     7    1
    18     7     8    1
    19     8    20    1
    20    20    21    1
    21    21    22   ar
    22    22    23   ar
    23    23    24   ar
    24    24    25   ar
    25    25    27    1
    26    27    28   ar
    27    28    29   ar
    28    29    30   ar
    29    30    31   ar
    30    25    26   ar
    31    14     9   ar
    32    19    15   ar
    33     8     3    1
    34    26    21   ar
    35    31    27   ar
