@<TRIPOS>MOLECULE
*****
 43 45 0 0 0
SMALL
GASTEIGER

@<TRIPOS>ATOM
      1 C          61.8821   86.1559    9.8144 C.3     1  UNL1        0.0920
      2 C          60.7394   85.9884    8.8572 C.3     1  UNL1        0.2582
      3 S          59.7815   87.1197    8.6274 S.O     1  UNL1        0.0319
      4 O          58.6389   86.9522    7.6703 O.co2   1  UNL1       -0.6812
      5 C          59.9665   88.4185    9.3548 C.3     1  UNL1        0.2736
      6 C          61.1092   88.5859   10.3120 C.3     1  UNL1        0.1416
      7 C          62.0670   87.4546   10.5417 C.3     1  UNL1        0.1353
      8 O          63.2097   87.6221   11.4989 O.3     1  UNL1       -0.3827
      9 H          63.1840   88.5136   11.8804 H       1  UNL1        0.2104
     10 N          61.2941   89.8847   11.0394 N.3     1  UNL1       -0.2887
     11 H          61.6095   89.6524   11.9812 H       1  UNL1        0.1237
     12 C          62.2455   90.9143   10.5057 C.3     1  UNL1        0.0958
     13 C          63.4470   91.3136   11.3100 C.ar    1  UNL1       -0.0066
     14 C          63.5989   90.8302   12.7218 C.ar    1  UNL1       -0.0029
     15 C          64.8004   91.2294   13.5261 C.ar    1  UNL1       -0.0005
     16 C          65.8501   92.1122   12.9186 C.ar    1  UNL1       -0.0021
     17 C          65.6981   92.5956   11.5068 C.ar    1  UNL1        0.0014
     18 C          64.4965   92.1963   10.7025 C.ar    1  UNL1       -0.0050
     19 C          66.7477   93.4783   10.8992 C.3     1  UNL1        0.1071
     20 C          66.2174   94.6452   11.6785 C.3     1  UNL1        0.0339
     21 C          67.2780   92.3115   10.1200 C.3     1  UNL1        0.0339
     22 O          67.7973   94.3610   10.2917 O.3     1  UNL1       -0.3827
     23 H          67.7002   95.2627   10.6358 H       1  UNL1        0.2107
     24 C          62.8399   85.0246   10.0442 C.3     1  UNL1        0.0342
     25 C          62.3810   83.9414   13.8344 C.ar    1  UNL1        0.1535
     26 C          62.5143   84.8004   12.6120 C.ar    1  UNL1        0.0341
     27 C          62.7066   84.1656   11.2666 C.ar    1  UNL1       -0.0166
     28 C          62.7655   82.6718   11.1436 C.ar    1  UNL1        0.0268
     29 C          62.6321   81.8128   12.3660 C.ar    1  UNL1        0.1556
     30 F          62.6910   80.3190   12.2431 F       1  UNL1       -0.2028
     31 C          62.4399   82.4476   13.7114 C.ar    1  UNL1        0.1037
     32 N          62.3065   81.5886   14.9339 N.pl3   1  UNL1       -0.3529
     33 H          62.3452   80.6081   14.8532 H       1  UNL1        0.1425
     34 H          62.1804   82.0052   15.8169 H       1  UNL1        0.1425
     35 O          62.1888   84.5762   15.1798 O.3     1  UNL1       -0.4665
     36 C          63.3123   85.3391   15.8166 C.3     1  UNL1        0.2891
     37 C          64.6865   85.2905   15.2170 C.3     1  UNL1        0.4366
     38 F          66.0605   85.2418   14.6174 F       1  UNL1       -0.1663
     39 F          64.5603   86.7289   14.8109 F       1  UNL1       -0.1663
     40 F          64.8127   83.8520   15.6230 F       1  UNL1       -0.1663
     41 C          63.0618   86.1507   17.0529 C.3     1  UNL1        0.1945
     42 C          63.0646   88.7438   16.8921 C.3     1  UNL1        0.1743
     43 O          62.3133   87.4473   16.9600 O.3     1  UNL1       -0.3469
@<TRIPOS>UNITY_ATOM_ATTR
3 1
charge 1
4 1
charge -1
@<TRIPOS>BOND
     1    42    43    1
     2    43    41    1
     3    36    41    1
     4    36    35    1
     5    35    25    1
     6    25    26   ar
     7    26    27   ar
     8    27    24    1
     9     1    24    1
    10     1     2    1
    11     2     3    1
    12     3     4    2
    13     3     5    1
    14     5     6    1
    15     6    10    1
    16    10    12    1
    17    12    13    1
    18    13    14   ar
    19    14    15   ar
    20    15    16   ar
    21    16    17   ar
    22    17    19    1
    23    19    20    1
    24    19    21    1
    25    19    22    1
    26    17    18   ar
    27     6     7    1
    28     7     8    1
    29    27    28   ar
    30    28    29   ar
    31    29    30    1
    32    29    31   ar
    33    31    32    1
    34    36    37    1
    35    37    38    1
    36    37    39    1
    37    37    40    1
    38    31    25   ar
    39     7     1    1
    40    18    13   ar
    41    10    11    1
    42    22    23    1
    43     8     9    1
    44    32    33    1
    45    32    34    1
@<TRIPOS>MOLECULE
*****
 43 45 0 0 0
SMALL
GASTEIGER

@<TRIPOS>ATOM
      1 C          61.8604   86.2109    9.6473 C.3     1  UNL1        0.0920
      2 C          60.7626   85.9096    8.6706 C.3     1  UNL1        0.2582
      3 S          59.7278   86.9504    8.3608 S.O     1  UNL1        0.0319
      4 O          58.6300   86.6491    7.3841 O.co2   1  UNL1       -0.6812
      5 C          59.7908   88.2925    9.0279 C.3     1  UNL1        0.2736
      6 C          60.8886   88.5937   10.0046 C.3     1  UNL1        0.1416
      7 C          61.9234   87.5530   10.3143 C.3     1  UNL1        0.1353
      8 O          63.0212   87.8543   11.2911 O.3     1  UNL1       -0.3827
      9 H          62.9158   88.7580   11.6274 H       1  UNL1        0.2104
     10 N          60.9516   89.9358   10.6717 N.3     1  UNL1       -0.2887
     11 H          59.9955   90.1827   10.9274 H       1  UNL1        0.1237
     12 C          61.7909   90.1239   11.9006 C.3     1  UNL1        0.0958
     13 C          63.0669   90.9087   11.8245 C.ar    1  UNL1       -0.0066
     14 C          63.5254   91.4692   10.5109 C.ar    1  UNL1       -0.0029
     15 C          64.8014   92.2540   10.4348 C.ar    1  UNL1       -0.0005
     16 C          65.6190   92.4783   11.6723 C.ar    1  UNL1       -0.0021
     17 C          65.1605   91.9177   12.9859 C.ar    1  UNL1        0.0014
     18 C          63.8844   91.1329   13.0619 C.ar    1  UNL1       -0.0050
     19 C          65.9779   92.1420   14.2233 C.3     1  UNL1        0.1071
     20 C          66.4252   93.4696   13.6873 C.3     1  UNL1        0.0339
     21 C          65.5307   90.8143   14.7594 C.3     1  UNL1        0.0339
     22 O          66.7954   92.3662   15.4608 O.3     1  UNL1       -0.3827
     23 H          67.2443   93.2240   15.4008 H       1  UNL1        0.2107
     24 C          62.8952   85.1701    9.9571 C.3     1  UNL1        0.0342
     25 C          62.3860   84.0627   13.7339 C.ar    1  UNL1        0.1535
     26 C          62.5344   84.9294   12.5187 C.ar    1  UNL1        0.0341
     27 C          62.7468   84.3033   11.1723 C.ar    1  UNL1       -0.0166
     28 C          62.8109   82.8105   11.0410 C.ar    1  UNL1        0.0268
     29 C          62.6625   81.9437   12.2562 C.ar    1  UNL1        0.1556
     30 F          62.7265   80.4508   12.1250 F       1  UNL1       -0.2028
     31 C          62.4500   82.5698   13.6026 C.ar    1  UNL1        0.1037
     32 N          62.3016   81.7030   14.8178 N.pl3   1  UNL1       -0.3529
     33 H          62.3436   80.7232   14.7317 H       1  UNL1        0.1425
     34 H          62.1622   82.1139   15.7015 H       1  UNL1        0.1425
     35 O          62.1736   84.6888   15.0803 O.3     1  UNL1       -0.4665
     36 C          63.3136   85.3671   15.7803 C.3     1  UNL1        0.2891
     37 C          64.6933   85.3118   15.1940 C.3     1  UNL1        0.4366
     38 F          66.0728   85.2565   14.6078 F       1  UNL1       -0.1663
     39 F          64.5763   86.7497   14.7831 F       1  UNL1       -0.1663
     40 F          64.8102   83.8740   15.6050 F       1  UNL1       -0.1663
     41 C          63.0741   86.1008   17.0665 C.3     1  UNL1        0.1945
     42 C          63.1096   88.6831   16.7825 C.3     1  UNL1        0.1743
     43 O          62.3540   87.4166   17.0566 O.3     1  UNL1       -0.3469
@<TRIPOS>UNITY_ATOM_ATTR
3 1
charge 1
4 1
charge -1
@<TRIPOS>BOND
     1    42    43    1
     2    43    41    1
     3    36    41    1
     4    36    35    1
     5    35    25    1
     6    25    26   ar
     7    26    27   ar
     8    27    24    1
     9     1    24    1
    10     1     2    1
    11     2     3    1
    12     3     4    2
    13     3     5    1
    14     5     6    1
    15     6    10    1
    16    10    12    1
    17    12    13    1
    18    13    14   ar
    19    14    15   ar
    20    15    16   ar
    21    16    17   ar
    22    17    19    1
    23    19    20    1
    24    19    21    1
    25    19    22    1
    26    17    18   ar
    27     6     7    1
    28     7     8    1
    29    27    28   ar
    30    28    29   ar
    31    29    30    1
    32    29    31   ar
    33    31    32    1
    34    36    37    1
    35    37    38    1
    36    37    39    1
    37    37    40    1
    38    31    25   ar
    39     7     1    1
    40    18    13   ar
    41    10    11    1
    42    22    23    1
    43     8     9    1
    44    32    33    1
    45    32    34    1
@<TRIPOS>MOLECULE
*****
 43 45 0 0 0
SMALL
GASTEIGER

@<TRIPOS>ATOM
      1 C          61.4228   89.3733   10.7090 C.3     1  UNL1        0.0920
      2 C          60.4296   89.6358    9.6160 C.3     1  UNL1        0.2582
      3 S          60.1557   88.5834    8.5828 S.O     1  UNL1        0.0319
      4 O          59.1625   88.8459    7.4898 O.co2   1  UNL1       -0.6812
      5 C          60.8751   87.2685    8.6426 C.3     1  UNL1        0.2736
      6 C          61.8684   87.0060    9.7355 C.3     1  UNL1        0.1416
      7 C          62.1422   88.0584   10.7687 C.3     1  UNL1        0.1353
      8 O          63.1355   87.7959   11.8617 O.3     1  UNL1       -0.3827
      9 H          63.5064   86.9060   11.7546 H       1  UNL1        0.2104
     10 N          62.5878   85.6911    9.7953 N.3     1  UNL1       -0.2887
     11 H          63.4830   85.8657   10.2520 H       1  UNL1        0.1237
     12 C          61.9617   84.5251   10.5012 C.3     1  UNL1        0.0958
     13 C          62.6098   83.9549   11.7278 C.ar    1  UNL1       -0.0066
     14 C          63.1002   82.5373   11.7269 C.ar    1  UNL1       -0.0029
     15 C          63.7484   81.9671   12.9536 C.ar    1  UNL1       -0.0005
     16 C          63.9062   82.8145   14.1812 C.ar    1  UNL1       -0.0021
     17 C          63.4158   84.2321   14.1822 C.ar    1  UNL1        0.0014
     18 C          62.7676   84.8022   12.9554 C.ar    1  UNL1       -0.0050
     19 C          63.5736   85.0794   15.4098 C.3     1  UNL1        0.1071
     20 C          62.3104   84.4988   15.9729 C.3     1  UNL1        0.0339
     21 C          64.8367   85.6601   14.8466 C.3     1  UNL1        0.0339
     22 O          63.7314   85.9268   16.6373 O.3     1  UNL1       -0.3827
     23 H          62.9952   85.7554   17.2453 H       1  UNL1        0.2107
     24 C          61.6967   90.4256   11.7422 C.3     1  UNL1        0.0342
     25 C          65.2198   91.3268   13.3314 C.ar    1  UNL1        0.1535
     26 C          63.8355   90.7703   13.1763 C.ar    1  UNL1        0.0341
     27 C          63.0810   90.9821   11.8973 C.ar    1  UNL1       -0.0166
     28 C          63.7108   91.7504   10.7734 C.ar    1  UNL1        0.0268
     29 C          65.0951   92.3068   10.9286 C.ar    1  UNL1        0.1556
     30 F          65.7249   93.0751    9.8046 F       1  UNL1       -0.2028
     31 C          65.8496   92.0950   12.2076 C.ar    1  UNL1        0.1037
     32 N          67.2339   92.6515   12.3627 N.pl3   1  UNL1       -0.3529
     33 H          67.6472   93.1558   11.6250 H       1  UNL1        0.1425
     34 H          67.7291   92.5125   13.2021 H       1  UNL1        0.1425
     35 O          65.9743   91.1150   14.6104 O.3     1  UNL1       -0.4665
     36 C          65.9938   92.1898   15.6565 C.3     1  UNL1        0.2891
     37 C          67.1716   93.1127   15.7618 C.3     1  UNL1        0.4366
     38 F          68.3494   94.0356   15.8671 F       1  UNL1       -0.1663
     39 F          66.5164   94.0588   14.7997 F       1  UNL1       -0.1663
     40 F          67.8268   92.1667   16.7239 F       1  UNL1       -0.1663
     41 C          64.8354   92.3417   16.5974 C.3     1  UNL1        0.1945
     42 C          63.4037   90.1753   16.6782 C.3     1  UNL1        0.1743
     43 O          63.5466   91.6253   16.3221 O.3     1  UNL1       -0.3469
@<TRIPOS>UNITY_ATOM_ATTR
3 1
charge 1
4 1
charge -1
@<TRIPOS>BOND
     1    42    43    1
     2    43    41    1
     3    36    41    1
     4    36    35    1
     5    35    25    1
     6    25    26   ar
     7    26    27   ar
     8    27    24    1
     9     1    24    1
    10     1     2    1
    11     2     3    1
    12     3     4    2
    13     3     5    1
    14     5     6    1
    15     6    10    1
    16    10    12    1
    17    12    13    1
    18    13    14   ar
    19    14    15   ar
    20    15    16   ar
    21    16    17   ar
    22    17    19    1
    23    19    20    1
    24    19    21    1
    25    19    22    1
    26    17    18   ar
    27     6     7    1
    28     7     8    1
    29    27    28   ar
    30    28    29   ar
    31    29    30    1
    32    29    31   ar
    33    31    32    1
    34    36    37    1
    35    37    38    1
    36    37    39    1
    37    37    40    1
    38    31    25   ar
    39     7     1    1
    40    18    13   ar
    41    10    11    1
    42    22    23    1
    43     8     9    1
    44    32    33    1
    45    32    34    1
@<TRIPOS>MOLECULE
*****
 43 45 0 0 0
SMALL
GASTEIGER

@<TRIPOS>ATOM
      1 C          61.9025   90.2115   10.4743 C.3     1  UNL1        0.0920
      2 C          60.6950   90.8254   11.1187 C.3     1  UNL1        0.2582
      3 S          59.5483   89.9566   11.5434 S.O     1  UNL1        0.0319
      4 O          58.3408   90.5703   12.1878 O.co2   1  UNL1       -0.6812
      5 C          59.6092   88.4739   11.3237 C.3     1  UNL1        0.2736
      6 C          60.8167   87.8602   10.6793 C.3     1  UNL1        0.1416
      7 C          61.9633   88.7290   10.2547 C.3     1  UNL1        0.1353
      8 O          63.1709   88.1152    9.6103 O.3     1  UNL1       -0.3827
      9 H          63.0489   87.1552    9.5435 H       1  UNL1        0.2104
     10 N          60.8776   86.3776   10.4596 N.3     1  UNL1       -0.2887
     11 H          60.0863   86.1356    9.8632 H       1  UNL1        0.1237
     12 C          62.0945   85.7612    9.8358 C.3     1  UNL1        0.0958
     13 C          62.8000   84.6311   10.5251 C.ar    1  UNL1       -0.0066
     14 C          63.7490   83.7596    9.7572 C.ar    1  UNL1       -0.0029
     15 C          64.4545   82.6296   10.4465 C.ar    1  UNL1       -0.0005
     16 C          64.2109   82.3710   11.9039 C.ar    1  UNL1       -0.0021
     17 C          63.2618   83.2425   12.6719 C.ar    1  UNL1        0.0014
     18 C          62.5563   84.3726   11.9824 C.ar    1  UNL1       -0.0050
     19 C          63.0182   82.9839   14.1292 C.3     1  UNL1        0.1071
     20 C          62.1262   81.8310   13.7755 C.3     1  UNL1        0.0339
     21 C          63.9101   84.1368   14.4828 C.3     1  UNL1        0.0339
     22 O          62.7745   82.7254   15.5864 O.3     1  UNL1       -0.3827
     23 H          62.1782   81.9667   15.6849 H       1  UNL1        0.2107
     24 C          63.0492   91.0804   10.0497 C.3     1  UNL1        0.0342
     25 C          66.1770   92.9148   11.6626 C.ar    1  UNL1        0.1535
     26 C          65.1593   92.4703   10.6544 C.ar    1  UNL1        0.0341
     27 C          64.0669   91.5249   11.0580 C.ar    1  UNL1       -0.0166
     28 C          63.9922   91.0241   12.4700 C.ar    1  UNL1        0.0268
     29 C          65.0099   91.4687   13.4782 C.ar    1  UNL1        0.1556
     30 F          64.9352   90.9679   14.8902 F       1  UNL1       -0.2028
     31 C          66.1023   92.4140   13.0745 C.ar    1  UNL1        0.1037
     32 N          67.1200   92.8586   14.0829 N.pl3   1  UNL1       -0.3529
     33 H          67.0709   92.5299   15.0096 H       1  UNL1        0.1425
     34 H          67.8370   93.4790   13.8180 H       1  UNL1        0.1425
     35 O          67.2694   93.8602   11.2590 O.3     1  UNL1       -0.4665
     36 C          67.5621   94.0916    9.8062 C.3     1  UNL1        0.2891
     37 C          68.3301   93.0681    9.0234 C.3     1  UNL1        0.4366
     38 F          69.0981   92.0447    8.2407 F       1  UNL1       -0.1663
     39 F          68.6828   92.3587   10.2971 F       1  UNL1       -0.1663
     40 F          67.9775   93.7775    7.7498 F       1  UNL1       -0.1663
     41 C          67.0868   95.3466    9.1360 C.3     1  UNL1        0.1945
     42 C          65.3311   96.7440   10.4456 C.3     1  UNL1        0.1743
     43 O          66.7370   96.5504    9.9597 O.3     1  UNL1       -0.3469
@<TRIPOS>UNITY_ATOM_ATTR
3 1
charge 1
4 1
charge -1
@<TRIPOS>BOND
     1    42    43    1
     2    43    41    1
     3    36    41    1
     4    36    35    1
     5    35    25    1
     6    25    26   ar
     7    26    27   ar
     8    27    24    1
     9     1    24    1
    10     1     2    1
    11     2     3    1
    12     3     4    2
    13     3     5    1
    14     5     6    1
    15     6    10    1
    16    10    12    1
    17    12    13    1
    18    13    14   ar
    19    14    15   ar
    20    15    16   ar
    21    16    17   ar
    22    17    19    1
    23    19    20    1
    24    19    21    1
    25    19    22    1
    26    17    18   ar
    27     6     7    1
    28     7     8    1
    29    27    28   ar
    30    28    29   ar
    31    29    30    1
    32    29    31   ar
    33    31    32    1
    34    36    37    1
    35    37    38    1
    36    37    39    1
    37    37    40    1
    38    31    25   ar
    39     7     1    1
    40    18    13   ar
    41    10    11    1
    42    22    23    1
    43     8     9    1
    44    32    33    1
    45    32    34    1
@<TRIPOS>MOLECULE
*****
 43 45 0 0 0
SMALL
GASTEIGER

@<TRIPOS>ATOM
      1 C          62.2054   90.7325   10.8708 C.3     1  UNL1        0.0920
      2 C          63.3005   91.4917   10.1820 C.3     1  UNL1        0.2582
      3 S          64.5128   91.9239   10.9525 S.O     1  UNL1        0.0319
      4 O          65.6079   92.6831   10.2638 O.co2   1  UNL1       -0.6812
      5 C          64.6299   91.5970   12.4118 C.3     1  UNL1        0.2736
      6 C          63.5348   90.8378   13.1005 C.3     1  UNL1        0.1416
      7 C          62.3225   90.4056   12.3300 C.3     1  UNL1        0.1353
      8 O          61.2274   89.6463   13.0188 O.3     1  UNL1       -0.3827
      9 H          61.4593   89.5198   13.9521 H       1  UNL1        0.2104
     10 N          63.6519   90.5108   14.5598 N.3     1  UNL1       -0.2887
     11 H          62.7154   90.2684   14.8833 H       1  UNL1        0.1237
     12 C          64.5644   89.4090   15.0106 C.3     1  UNL1        0.0958
     13 C          63.9926   88.1652   15.6237 C.ar    1  UNL1       -0.0066
     14 C          63.1714   88.2554   16.8758 C.ar    1  UNL1       -0.0029
     15 C          62.5996   87.0116   17.4889 C.ar    1  UNL1       -0.0005
     16 C          62.8490   85.6775   16.8500 C.ar    1  UNL1       -0.0021
     17 C          63.6702   85.5873   15.5980 C.ar    1  UNL1        0.0014
     18 C          64.2420   86.8312   14.9849 C.ar    1  UNL1       -0.0050
     19 C          63.9195   84.2533   14.9591 C.3     1  UNL1        0.1071
     20 C          65.2515   84.7375   14.4680 C.3     1  UNL1        0.0339
     21 C          62.5875   83.7691   15.4503 C.3     1  UNL1        0.0339
     22 O          64.1689   82.9193   14.3203 O.3     1  UNL1       -0.3827
     23 H          65.0348   82.9270   13.8831 H       1  UNL1        0.2107
     24 C          60.9932   90.3003   10.1003 C.3     1  UNL1        0.0342
     25 C          62.0965   86.6712    8.9330 C.ar    1  UNL1        0.1535
     26 C          62.1179   88.0106    9.6079 C.ar    1  UNL1        0.0341
     27 C          60.9717   88.9608    9.4253 C.ar    1  UNL1       -0.0166
     28 C          59.8042   88.5717    8.5678 C.ar    1  UNL1        0.0268
     29 C          59.7828   87.2324    7.8929 C.ar    1  UNL1        0.1556
     30 F          58.6152   86.8432    7.0353 F       1  UNL1       -0.2028
     31 C          60.9289   86.2821    8.0755 C.ar    1  UNL1        0.1037
     32 N          60.9075   84.9426    7.4005 N.pl3   1  UNL1       -0.3529
     33 H          60.1412   84.6873    6.8377 H       1  UNL1        0.1425
     34 H          61.6597   84.3189    7.5203 H       1  UNL1        0.1425
     35 O          63.2426   85.7210    9.1156 O.3     1  UNL1       -0.4665
     36 C          63.2258   84.7337   10.2448 C.3     1  UNL1        0.2891
     37 C          62.4680   85.0445   11.5015 C.3     1  UNL1        0.4366
     38 F          61.7102   85.3552   12.7581 F       1  UNL1       -0.1663
     39 F          61.3755   84.1099   11.0738 F       1  UNL1       -0.1663
     40 F          63.5605   85.9791   11.9291 F       1  UNL1       -0.1663
     41 C          63.9668   83.4358   10.1173 C.3     1  UNL1        0.1945
     42 C          63.1414   81.3493   11.4270 C.3     1  UNL1        0.1743
     43 O          64.0758   82.5155   11.2969 O.3     1  UNL1       -0.3469
@<TRIPOS>UNITY_ATOM_ATTR
3 1
charge 1
4 1
charge -1
@<TRIPOS>BOND
     1    42    43    1
     2    43    41    1
     3    36    41    1
     4    36    35    1
     5    35    25    1
     6    25    26   ar
     7    26    27   ar
     8    27    24    1
     9     1    24    1
    10     1     2    1
    11     2     3    1
    12     3     4    2
    13     3     5    1
    14     5     6    1
    15     6    10    1
    16    10    12    1
    17    12    13    1
    18    13    14   ar
    19    14    15   ar
    20    15    16   ar
    21    16    17   ar
    22    17    19    1
    23    19    20    1
    24    19    21    1
    25    19    22    1
    26    17    18   ar
    27     6     7    1
    28     7     8    1
    29    27    28   ar
    30    28    29   ar
    31    29    30    1
    32    29    31   ar
    33    31    32    1
    34    36    37    1
    35    37    38    1
    36    37    39    1
    37    37    40    1
    38    31    25   ar
    39     7     1    1
    40    18    13   ar
    41    10    11    1
    42    22    23    1
    43     8     9    1
    44    32    33    1
    45    32    34    1
@<TRIPOS>MOLECULE
*****
 43 45 0 0 0
SMALL
GASTEIGER

@<TRIPOS>ATOM
      1 C          60.9413   87.6934   10.4075 C.3     1  UNL1        0.0920
      2 C          59.7479   87.8614   11.3006 C.3     1  UNL1        0.2582
      3 S          59.4216   89.2100   11.8705 S.O     1  UNL1        0.0319
      4 O          58.2283   89.3781   12.7636 O.co2   1  UNL1       -0.6812
      5 C          60.2887   90.3906   11.5472 C.3     1  UNL1        0.2736
      6 C          61.4820   90.2226   10.6541 C.3     1  UNL1        0.1416
      7 C          61.8083   88.8740   10.0842 C.3     1  UNL1        0.1353
      8 O          63.0018   88.7060    9.1911 O.3     1  UNL1       -0.3827
      9 H          63.4493   89.5601    9.0854 H       1  UNL1        0.2104
     10 N          62.3491   91.4032   10.3309 N.3     1  UNL1       -0.2887
     11 H          61.9987   92.1859   10.8831 H       1  UNL1        0.1237
     12 C          63.8287   91.3343   10.5676 C.3     1  UNL1        0.0958
     13 C          64.3678   91.3894   11.9663 C.ar    1  UNL1       -0.0066
     14 C          65.4332   92.3840   12.3208 C.ar    1  UNL1       -0.0029
     15 C          65.9723   92.4391   13.7195 C.ar    1  UNL1       -0.0005
     16 C          65.4460   91.4996   14.7637 C.ar    1  UNL1       -0.0021
     17 C          64.3806   90.5049   14.4092 C.ar    1  UNL1        0.0014
     18 C          63.8415   90.4499   13.0104 C.ar    1  UNL1       -0.0050
     19 C          63.8543   89.5654   15.4533 C.3     1  UNL1        0.1071
     20 C          64.1994   88.3981   14.5769 C.3     1  UNL1        0.0339
     21 C          63.5093   90.7327   16.3298 C.3     1  UNL1        0.0339
     22 O          63.3281   88.6259   16.4975 O.3     1  UNL1       -0.3827
     23 H          63.4250   87.7116   16.1882 H       1  UNL1        0.2107
     24 C          61.2677   86.3448    9.8376 C.3     1  UNL1        0.0342
     25 C          63.4872   84.7689   12.7255 C.ar    1  UNL1        0.1535
     26 C          62.5362   85.6775   12.0046 C.ar    1  UNL1        0.0341
     27 C          62.2188   85.4361   10.5585 C.ar    1  UNL1       -0.0166
     28 C          62.8526   84.2861    9.8334 C.ar    1  UNL1        0.0268
     29 C          63.8036   83.3775   10.5544 C.ar    1  UNL1        0.1556
     30 F          64.4375   82.2274    9.8293 F       1  UNL1       -0.2028
     31 C          64.1210   83.6189   12.0004 C.ar    1  UNL1        0.1037
     32 N          65.0721   82.7102   12.7214 N.pl3   1  UNL1       -0.3529
     33 H          65.4881   81.9554   12.2455 H       1  UNL1        0.1425
     34 H          65.2804   82.8686   13.6705 H       1  UNL1        0.1425
     35 O          63.8046   85.0103   14.1715 O.3     1  UNL1       -0.4665
     36 C          62.8709   84.5170   15.2368 C.3     1  UNL1        0.2891
     37 C          62.6904   85.3057   16.5000 C.3     1  UNL1        0.4366
     38 F          62.5099   86.0943   17.7630 F       1  UNL1       -0.1663
     39 F          64.1792   85.3790   16.6670 F       1  UNL1       -0.1663
     40 F          61.2016   85.2324   16.3330 F       1  UNL1       -0.1663
     41 C          62.1176   83.2351   15.0390 C.3     1  UNL1        0.1945
     42 C          62.1898   80.8816   13.9408 C.3     1  UNL1        0.1743
     43 O          62.8599   81.9695   14.7265 O.3     1  UNL1       -0.3469
@<TRIPOS>UNITY_ATOM_ATTR
3 1
charge 1
4 1
charge -1
@<TRIPOS>BOND
     1    42    43    1
     2    43    41    1
     3    36    41    1
     4    36    35    1
     5    35    25    1
     6    25    26   ar
     7    26    27   ar
     8    27    24    1
     9     1    24    1
    10     1     2    1
    11     2     3    1
    12     3     4    2
    13     3     5    1
    14     5     6    1
    15     6    10    1
    16    10    12    1
    17    12    13    1
    18    13    14   ar
    19    14    15   ar
    20    15    16   ar
    21    16    17   ar
    22    17    19    1
    23    19    20    1
    24    19    21    1
    25    19    22    1
    26    17    18   ar
    27     6     7    1
    28     7     8    1
    29    27    28   ar
    30    28    29   ar
    31    29    30    1
    32    29    31   ar
    33    31    32    1
    34    36    37    1
    35    37    38    1
    36    37    39    1
    37    37    40    1
    38    31    25   ar
    39     7     1    1
    40    18    13   ar
    41    10    11    1
    42    22    23    1
    43     8     9    1
    44    32    33    1
    45    32    34    1
@<TRIPOS>MOLECULE
*****
 43 45 0 0 0
SMALL
GASTEIGER

@<TRIPOS>ATOM
      1 C          63.2892   90.3929   13.0551 C.3     1  UNL1        0.0920
      2 C          62.5781   90.9328   11.8498 C.3     1  UNL1        0.2582
      3 S          62.0447   89.9926   10.8099 S.O     1  UNL1        0.0319
      4 O          61.3335   90.5325    9.6046 O.co2   1  UNL1       -0.6812
      5 C          62.2224   88.5123   10.9754 C.3     1  UNL1        0.2736
      6 C          62.9335   87.9724   12.1806 C.3     1  UNL1        0.1416
      7 C          63.4669   88.9127   13.2205 C.3     1  UNL1        0.1353
      8 O          64.1781   88.3727   14.4259 O.3     1  UNL1       -0.3827
      9 H          64.2062   87.4043   14.3778 H       1  UNL1        0.2104
     10 N          63.1113   86.4921   12.3461 N.3     1  UNL1       -0.2887
     11 H          62.8939   86.2764   13.3191 H       1  UNL1        0.1237
     12 C          62.3132   85.5421   11.5032 C.3     1  UNL1        0.0958
     13 C          62.7709   84.1237   11.3338 C.ar    1  UNL1       -0.0066
     14 C          63.6668   83.7566   10.1881 C.ar    1  UNL1       -0.0029
     15 C          64.1246   82.3382   10.0186 C.ar    1  UNL1       -0.0005
     16 C          63.6864   81.2870   10.9949 C.ar    1  UNL1       -0.0021
     17 C          62.7905   81.6542   12.1406 C.ar    1  UNL1        0.0014
     18 C          62.3328   83.0726   12.3100 C.ar    1  UNL1       -0.0050
     19 C          62.3524   80.6030   13.1168 C.3     1  UNL1        0.1071
     20 C          62.0064   81.6710   14.1115 C.3     1  UNL1        0.0339
     21 C          62.6983   79.5350   12.1220 C.3     1  UNL1        0.0339
     22 O          61.9142   79.5519   14.0930 O.3     1  UNL1       -0.3827
     23 H          61.6088   79.9765   14.9099 H       1  UNL1        0.2107
     24 C          63.8227   91.3332   14.0950 C.3     1  UNL1        0.0342
     25 C          67.5794   91.9394   12.9681 C.ar    1  UNL1        0.1535
     26 C          66.1091   91.6498   12.9024 C.ar    1  UNL1        0.0341
     27 C          65.2930   91.6228   14.1607 C.ar    1  UNL1       -0.0166
     28 C          65.9473   91.8853   15.4847 C.ar    1  UNL1        0.0268
     29 C          67.4175   92.1749   15.5504 C.ar    1  UNL1        0.1556
     30 F          68.0719   92.4374   16.8744 F       1  UNL1       -0.2028
     31 C          68.2336   92.2019   14.2921 C.ar    1  UNL1        0.1037
     32 N          69.7040   92.4915   14.3578 N.pl3   1  UNL1       -0.3529
     33 H          70.1334   92.6638   15.2268 H       1  UNL1        0.1425
     34 H          70.2396   92.5093   13.5320 H       1  UNL1        0.1425
     35 O          68.3954   91.9664   11.7098 O.3     1  UNL1       -0.4665
     36 C          67.8605   92.6445   10.4834 C.3     1  UNL1        0.2891
     37 C          68.4977   92.3927    9.1489 C.3     1  UNL1        0.4366
     38 F          69.1349   92.1410    7.8145 F       1  UNL1       -0.1663
     39 F          68.0611   90.9590    9.2108 F       1  UNL1       -0.1663
     40 F          68.9343   93.8264    9.0870 F       1  UNL1       -0.1663
     41 C          66.6884   93.5743   10.5913 C.3     1  UNL1        0.1945
     42 C          66.8614   96.1430   10.2421 C.3     1  UNL1        0.1743
     43 O          66.8735   94.9523   11.1543 O.3     1  UNL1       -0.3469
@<TRIPOS>UNITY_ATOM_ATTR
3 1
charge 1
4 1
charge -1
@<TRIPOS>BOND
     1    42    43    1
     2    43    41    1
     3    36    41    1
     4    36    35    1
     5    35    25    1
     6    25    26   ar
     7    26    27   ar
     8    27    24    1
     9     1    24    1
    10     1     2    1
    11     2     3    1
    12     3     4    2
    13     3     5    1
    14     5     6    1
    15     6    10    1
    16    10    12    1
    17    12    13    1
    18    13    14   ar
    19    14    15   ar
    20    15    16   ar
    21    16    17   ar
    22    17    19    1
    23    19    20    1
    24    19    21    1
    25    19    22    1
    26    17    18   ar
    27     6     7    1
    28     7     8    1
    29    27    28   ar
    30    28    29   ar
    31    29    30    1
    32    29    31   ar
    33    31    32    1
    34    36    37    1
    35    37    38    1
    36    37    39    1
    37    37    40    1
    38    31    25   ar
    39     7     1    1
    40    18    13   ar
    41    10    11    1
    42    22    23    1
    43     8     9    1
    44    32    33    1
    45    32    34    1
@<TRIPOS>MOLECULE
*****
 43 45 0 0 0
SMALL
GASTEIGER

@<TRIPOS>ATOM
      1 C          64.3430   91.6561   11.1620 C.3     1  UNL1        0.0920
      2 C          65.1686   92.8991   11.0086 C.3     1  UNL1        0.2582
      3 S          66.0000   93.3935   12.1551 S.O     1  UNL1        0.0319
      4 O          66.8255   94.6364   12.0017 O.co2   1  UNL1       -0.6812
      5 C          66.0059   92.6448   13.4549 C.3     1  UNL1        0.2736
      6 C          65.1804   91.4019   13.6083 C.3     1  UNL1        0.1416
      7 C          64.3490   90.9075   12.4618 C.3     1  UNL1        0.1353
      8 O          63.5234   89.6645   12.6152 O.3     1  UNL1       -0.3827
      9 H          63.6402   89.3071   13.5094 H       1  UNL1        0.2104
     10 N          65.1862   90.6532   14.9081 N.3     1  UNL1       -0.2887
     11 H          65.6304   91.2613   15.5961 H       1  UNL1        0.1237
     12 C          63.8941   90.1880   15.5115 C.3     1  UNL1        0.0958
     13 C          63.7131   88.7441   15.8752 C.ar    1  UNL1       -0.0066
     14 C          62.9989   88.3733   17.1410 C.ar    1  UNL1       -0.0029
     15 C          62.8179   86.9294   17.5047 C.ar    1  UNL1       -0.0005
     16 C          63.3511   85.8562   16.6024 C.ar    1  UNL1       -0.0021
     17 C          64.0653   86.2270   15.3366 C.ar    1  UNL1        0.0014
     18 C          64.2463   87.6710   14.9730 C.ar    1  UNL1       -0.0050
     19 C          64.5986   85.1538   14.4344 C.3     1  UNL1        0.1071
     20 C          65.9972   85.4945   14.8559 C.3     1  UNL1        0.0339
     21 C          63.1999   84.8132   14.0129 C.3     1  UNL1        0.0339
     22 O          65.1318   84.0807   13.5322 O.3     1  UNL1       -0.3827
     23 H          66.0995   84.0571   13.5947 H       1  UNL1        0.2107
     24 C          63.5116   91.1617   10.0156 C.3     1  UNL1        0.0342
     25 C          60.9667   88.1238   10.2264 C.ar    1  UNL1        0.1535
     26 C          62.2164   88.9101    9.9623 C.ar    1  UNL1        0.0341
     27 C          62.2618   90.3754   10.2797 C.ar    1  UNL1       -0.0166
     28 C          61.0574   91.0545   10.8613 C.ar    1  UNL1        0.0268
     29 C          59.8076   90.2682   11.1254 C.ar    1  UNL1        0.1556
     30 F          58.6031   90.9473   11.7070 F       1  UNL1       -0.2028
     31 C          59.7623   88.8029   10.8080 C.ar    1  UNL1        0.1037
     32 N          58.5124   88.0166   11.0722 N.pl3   1  UNL1       -0.3529
     33 H          57.7219   88.4623   11.4539 H       1  UNL1        0.1425
     34 H          58.4826   87.0549   10.8638 H       1  UNL1        0.1425
     35 O          60.9213   86.6585    9.9090 O.3     1  UNL1       -0.4665
     36 C          60.7181   86.2035    8.4942 C.3     1  UNL1        0.2891
     37 C          61.8366   85.5311    7.7546 C.3     1  UNL1        0.4366
     38 F          62.9550   84.8587    7.0151 F       1  UNL1       -0.1663
     39 F          60.8640   85.0551    6.7166 F       1  UNL1       -0.1663
     40 F          62.8091   86.0071    8.7927 F       1  UNL1       -0.1663
     41 C          59.3964   86.4209    7.8190 C.3     1  UNL1        0.1945
     42 C          59.3211   88.9131    7.0884 C.3     1  UNL1        0.1743
     43 O          58.7421   87.7699    7.8680 O.3     1  UNL1       -0.3469
@<TRIPOS>UNITY_ATOM_ATTR
3 1
charge 1
4 1
charge -1
@<TRIPOS>BOND
     1    42    43    1
     2    43    41    1
     3    36    41    1
     4    36    35    1
     5    35    25    1
     6    25    26   ar
     7    26    27   ar
     8    27    24    1
     9     1    24    1
    10     1     2    1
    11     2     3    1
    12     3     4    2
    13     3     5    1
    14     5     6    1
    15     6    10    1
    16    10    12    1
    17    12    13    1
    18    13    14   ar
    19    14    15   ar
    20    15    16   ar
    21    16    17   ar
    22    17    19    1
    23    19    20    1
    24    19    21    1
    25    19    22    1
    26    17    18   ar
    27     6     7    1
    28     7     8    1
    29    27    28   ar
    30    28    29   ar
    31    29    30    1
    32    29    31   ar
    33    31    32    1
    34    36    37    1
    35    37    38    1
    36    37    39    1
    37    37    40    1
    38    31    25   ar
    39     7     1    1
    40    18    13   ar
    41    10    11    1
    42    22    23    1
    43     8     9    1
    44    32    33    1
    45    32    34    1
@<TRIPOS>MOLECULE
*****
 43 45 0 0 0
SMALL
GASTEIGER

@<TRIPOS>ATOM
      1 C          61.1426   87.8056   10.5556 C.3     1  UNL1        0.0920
      2 C          59.7637   87.8004   11.1462 C.3     1  UNL1        0.2582
      3 S          59.2985   88.9607   11.9752 S.O     1  UNL1        0.0319
      4 O          57.9197   88.9555   12.5658 O.co2   1  UNL1       -0.6812
      5 C          60.2121   90.1264   12.2134 C.3     1  UNL1        0.2736
      6 C          61.5909   90.1316   11.6228 C.3     1  UNL1        0.1416
      7 C          62.0561   88.9712   10.7938 C.3     1  UNL1        0.1353
      8 O          63.4349   88.9765   10.2032 O.3     1  UNL1       -0.3827
      9 H          63.8899   89.7963   10.4515 H       1  UNL1        0.2104
     10 N          62.5045   91.2972   11.8610 N.3     1  UNL1       -0.2887
     11 H          61.9111   92.1207   11.9617 H       1  UNL1        0.1237
     12 C          63.4384   91.2904   13.0348 C.3     1  UNL1        0.0958
     13 C          64.8814   91.6545   12.8472 C.ar    1  UNL1       -0.0066
     14 C          65.8633   91.4249   13.9576 C.ar    1  UNL1       -0.0029
     15 C          67.3063   91.7890   13.7700 C.ar    1  UNL1       -0.0005
     16 C          67.7674   92.3828   12.4719 C.ar    1  UNL1       -0.0021
     17 C          66.7854   92.6124   11.3615 C.ar    1  UNL1        0.0014
     18 C          65.3424   92.2482   11.5491 C.ar    1  UNL1       -0.0050
     19 C          67.2465   93.2061   10.0635 C.3     1  UNL1        0.1071
     20 C          66.3899   94.4123   10.3110 C.3     1  UNL1        0.0339
     21 C          68.1030   91.9999    9.8160 C.3     1  UNL1        0.0339
     22 O          67.7075   93.7998    8.7655 O.3     1  UNL1       -0.3827
     23 H          67.2846   94.6632    8.6366 H       1  UNL1        0.2107
     24 C          61.6078   86.6453    9.7267 C.3     1  UNL1        0.0342
     25 C          62.7458   84.0400   12.4957 C.ar    1  UNL1        0.1535
     26 C          62.0657   85.2051   11.8400 C.ar    1  UNL1        0.0341
     27 C          62.2879   85.4801   10.3823 C.ar    1  UNL1       -0.0166
     28 C          63.1903   84.5899    9.5802 C.ar    1  UNL1        0.0268
     29 C          63.8704   83.4248   10.2359 C.ar    1  UNL1        0.1556
     30 F          64.7728   82.5346    9.4338 F       1  UNL1       -0.2028
     31 C          63.6481   83.1498   11.6936 C.ar    1  UNL1        0.1037
     32 N          64.3283   81.9846   12.3493 N.pl3   1  UNL1       -0.3529
     33 H          64.9205   81.4004   11.8228 H       1  UNL1        0.1425
     34 H          64.1824   81.8042   13.3060 H       1  UNL1        0.1425
     35 O          62.5236   83.7650   13.9534 O.3     1  UNL1       -0.4665
     36 C          63.1991   84.6149   14.9885 C.3     1  UNL1        0.2891
     37 C          64.6235   85.0431   14.7941 C.3     1  UNL1        0.4366
     38 F          66.0478   85.4714   14.5998 F       1  UNL1       -0.1663
     39 F          65.0885   83.6678   15.1713 F       1  UNL1       -0.1663
     40 F          64.1585   86.4184   14.4169 F       1  UNL1       -0.1663
     41 C          62.4503   85.0365   16.2179 C.3     1  UNL1        0.1945
     42 C          62.6157   86.6678   18.2332 C.3     1  UNL1        0.1743
     43 O          62.6096   86.4291   16.7524 O.3     1  UNL1       -0.3469
@<TRIPOS>UNITY_ATOM_ATTR
3 1
charge 1
4 1
charge -1
@<TRIPOS>BOND
     1    42    43    1
     2    43    41    1
     3    36    41    1
     4    36    35    1
     5    35    25    1
     6    25    26   ar
     7    26    27   ar
     8    27    24    1
     9     1    24    1
    10     1     2    1
    11     2     3    1
    12     3     4    2
    13     3     5    1
    14     5     6    1
    15     6    10    1
    16    10    12    1
    17    12    13    1
    18    13    14   ar
    19    14    15   ar
    20    15    16   ar
    21    16    17   ar
    22    17    19    1
    23    19    20    1
    24    19    21    1
    25    19    22    1
    26    17    18   ar
    27     6     7    1
    28     7     8    1
    29    27    28   ar
    30    28    29   ar
    31    29    30    1
    32    29    31   ar
    33    31    32    1
    34    36    37    1
    35    37    38    1
    36    37    39    1
    37    37    40    1
    38    31    25   ar
    39     7     1    1
    40    18    13   ar
    41    10    11    1
    42    22    23    1
    43     8     9    1
    44    32    33    1
    45    32    34    1
