@<TRIPOS>MOLECULE
*****
 35 38 0 0 0
SMALL
GASTEIGER

@<TRIPOS>ATOM
      1 C          61.9650   89.3691   11.1712 C.3     1  UNL1        0.0757
      2 C          62.7656   90.3426   10.3580 C.3     1  UNL1        0.0195
      3 C          63.7962   91.2061   11.0228 C.3     1  UNL1        0.0282
      4 C          64.0263   91.0962   12.5010 C.3     1  UNL1        0.1420
      5 C          65.0569   91.9598   13.1658 C.ar    1  UNL1        0.0616
      6 C          65.8575   92.9332   12.3526 C.ar    1  UNL1        0.1407
      7 F          65.8901   93.2965   10.8975 F       1  UNL1       -0.2043
      8 C          66.8881   93.7968   13.0174 C.ar    1  UNL1        0.0319
      9 C          67.1182   93.6869   14.4956 C.ar    1  UNL1        0.0351
     10 C          66.3177   92.7134   15.3088 C.ar    1  UNL1        0.1737
     11 F          66.5478   92.6034   16.7870 F       1  UNL1       -0.2010
     12 C          65.2870   91.8498   14.6440 C.ar    1  UNL1        0.1654
     13 O          64.4865   90.8763   15.4573 O.3     1  UNL1       -0.4733
     14 C          63.4558   90.0128   14.7924 C.3     1  UNL1        0.2074
     15 C          63.2258   90.1227   13.3142 C.3     1  UNL1        0.0698
     16 C          62.1951   89.2592   12.6494 C.3     1  UNL1        0.0231
     17 S          64.8268   92.0697   11.6877 S.O2    1  UNL1        0.0093
     18 O          64.4330   92.6328   11.2836 O.2     1  UNL1       -0.1684
     19 O          66.2482   91.6431   11.9068 O.2     1  UNL1       -0.1684
     20 C          65.6275   93.0432   10.8744 C.ar    1  UNL1        0.1059
     21 C          66.8481   92.5786   10.1367 C.ar    1  UNL1        0.0192
     22 C          67.6487   93.5520    9.3234 C.ar    1  UNL1        0.0127
     23 C          67.2287   94.9901    9.2478 C.ar    1  UNL1        0.0578
     24 CL         68.0293   95.9635    8.4346 Cl      1  UNL1       -0.0822
     25 C          66.0081   95.4546    9.9856 C.ar    1  UNL1        0.0127
     26 C          65.2075   94.4811   10.7989 C.ar    1  UNL1        0.0192
     27 N          60.9344   88.5055   10.5064 N.3     1  UNL1       -0.1773
     28 H          60.3938   88.0658   11.2512 H       1  UNL1        0.1486
     29 O          60.5140   88.0009    8.4893 O.2     1  UNL1       -0.1497
     30 S          61.3616   87.4091    9.5762 S.O2    1  UNL1        0.1271
     31 O          62.2091   86.8173   10.6630 O.2     1  UNL1       -0.1497
     32 C          61.7887   86.3126    8.6459 C.3     1  UNL1        0.5357
     33 F          63.2083   86.7884    8.7369 F       1  UNL1       -0.1493
     34 F          60.3691   85.8368    8.5549 F       1  UNL1       -0.1493
     35 F          62.2159   85.2162    7.7157 F       1  UNL1       -0.1493
@<TRIPOS>BOND
     1    29    30    2
     2    30    31    2
     3    30    27    1
     4     1    27    1
     5     1     2    1
     6     2     3    1
     7     3     4    1
     8     4    17    1
     9    17    18    2
    10    17    19    2
    11    17    20    1
    12    20    21   ar
    13    21    22   ar
    14    22    23   ar
    15    23    24    1
    16    23    25   ar
    17    25    26   ar
    18     4     5    1
    19     5     6   ar
    20     6     7    1
    21     6     8   ar
    22     8     9   ar
    23     9    10   ar
    24    10    11    1
    25    10    12   ar
    26    12    13    1
    27    13    14    1
    28    15    14    1
    29    15    16    1
    30    30    32    1
    31    32    33    1
    32    32    34    1
    33    32    35    1
    34    16     1    1
    35    15     4    1
    36    26    20   ar
    37    12     5   ar
    38    27    28    1
@<TRIPOS>MOLECULE
*****
 35 38 0 0 0
SMALL
GASTEIGER

@<TRIPOS>ATOM
      1 C          64.2310   90.3988   13.7043 C.3     1  UNL1        0.0757
      2 C          63.4429   90.0962   12.4645 C.3     1  UNL1        0.0195
      3 C          63.0823   88.6786   12.1323 C.3     1  UNL1        0.0282
      4 C          63.5099   87.5636   13.0400 C.3     1  UNL1        0.1420
      5 C          63.1493   86.1459   12.7079 C.ar    1  UNL1        0.0616
      6 C          62.3612   85.8433   11.4680 C.ar    1  UNL1        0.1407
      7 F          61.7858   86.6849   10.3676 F       1  UNL1       -0.2043
      8 C          62.0006   84.4257   11.1359 C.ar    1  UNL1        0.0319
      9 C          62.4282   83.3107   12.0436 C.ar    1  UNL1        0.0351
     10 C          63.2163   83.6133   13.2834 C.ar    1  UNL1        0.1737
     11 F          63.6439   82.4983   14.1912 F       1  UNL1       -0.2010
     12 C          63.5768   85.0310   13.6156 C.ar    1  UNL1        0.1654
     13 O          64.3650   85.3336   14.8555 O.3     1  UNL1       -0.4733
     14 C          64.7256   86.7512   15.1876 C.3     1  UNL1        0.2074
     15 C          64.2980   87.8662   14.2799 C.3     1  UNL1        0.0698
     16 C          64.6585   89.2838   14.6120 C.3     1  UNL1        0.0231
     17 S          62.7217   87.2609   11.8002 S.O2    1  UNL1        0.0093
     18 O          63.0082   86.7108   11.2995 O.2     1  UNL1       -0.1684
     19 O          61.5318   88.1693   11.8958 O.2     1  UNL1       -0.1684
     20 C          61.9335   86.9583   10.5603 C.ar    1  UNL1        0.1059
     21 C          60.4590   87.2308   10.5238 C.ar    1  UNL1        0.0192
     22 C          59.6708   86.9283    9.2840 C.ar    1  UNL1        0.0127
     23 C          60.3571   86.3531    8.0806 C.ar    1  UNL1        0.0578
     24 CL         59.5690   86.0505    6.8408 Cl      1  UNL1       -0.0822
     25 C          61.8317   86.0806    8.1171 C.ar    1  UNL1        0.0127
     26 C          62.6199   86.3832    9.3570 C.ar    1  UNL1        0.0192
     27 N          64.5915   91.8165   14.0365 N.3     1  UNL1       -0.1773
     28 H          64.6271   92.3259   13.1535 H       1  UNL1        0.1486
     29 O          65.0930   92.4400   16.0010 O.2     1  UNL1       -0.1497
     30 S          65.8709   92.1150   14.7604 S.O2    1  UNL1        0.1271
     31 O          66.6488   91.7901   13.5197 O.2     1  UNL1       -0.1497
     32 C          67.1503   92.4136   15.4844 C.3     1  UNL1        0.5357
     33 F          67.9333   91.9489   14.2924 F       1  UNL1       -0.1493
     34 F          66.3672   92.8784   16.6764 F       1  UNL1       -0.1493
     35 F          68.4295   92.7122   16.2084 F       1  UNL1       -0.1493
@<TRIPOS>BOND
     1    29    30    2
     2    30    31    2
     3    30    27    1
     4     1    27    1
     5     1     2    1
     6     2     3    1
     7     3     4    1
     8     4    17    1
     9    17    18    2
    10    17    19    2
    11    17    20    1
    12    20    21   ar
    13    21    22   ar
    14    22    23   ar
    15    23    24    1
    16    23    25   ar
    17    25    26   ar
    18     4     5    1
    19     5     6   ar
    20     6     7    1
    21     6     8   ar
    22     8     9   ar
    23     9    10   ar
    24    10    11    1
    25    10    12   ar
    26    12    13    1
    27    13    14    1
    28    15    14    1
    29    15    16    1
    30    30    32    1
    31    32    33    1
    32    32    34    1
    33    32    35    1
    34    16     1    1
    35    15     4    1
    36    26    20   ar
    37    12     5   ar
    38    27    28    1
@<TRIPOS>MOLECULE
*****
 35 38 0 0 0
SMALL
GASTEIGER

@<TRIPOS>ATOM
      1 C          63.3902   83.8451   13.8779 C.3     1  UNL1        0.0757
      2 C          62.5671   84.1321   12.6573 C.3     1  UNL1        0.0195
      3 C          62.4508   85.5368   12.1443 C.3     1  UNL1        0.0282
      4 C          63.1577   86.6546   12.8519 C.3     1  UNL1        0.1420
      5 C          63.0414   88.0594   12.3390 C.ar    1  UNL1        0.0616
      6 C          62.2183   88.3463   11.1183 C.ar    1  UNL1        0.1407
      7 F          61.4011   87.4981   10.1894 F       1  UNL1       -0.2043
      8 C          62.1020   89.7511   10.6053 C.ar    1  UNL1        0.0319
      9 C          62.8089   90.8689   11.3130 C.ar    1  UNL1        0.0351
     10 C          63.6320   90.5819   12.5336 C.ar    1  UNL1        0.1737
     11 F          64.3389   91.6997   13.2414 F       1  UNL1       -0.2010
     12 C          63.7483   89.1772   13.0466 C.ar    1  UNL1        0.1654
     13 O          64.5715   88.8902   14.2674 O.3     1  UNL1       -0.4733
     14 C          64.6877   87.4855   14.7803 C.3     1  UNL1        0.2074
     15 C          63.9808   86.3677   14.0726 C.3     1  UNL1        0.0698
     16 C          64.0971   84.9629   14.5856 C.3     1  UNL1        0.0231
     17 S          62.3345   86.9416   11.6313 S.O2    1  UNL1        0.0093
     18 O          62.6853   87.3202   11.0238 O.2     1  UNL1       -0.1684
     19 O          60.9851   86.3761   11.9623 O.2     1  UNL1       -0.1684
     20 C          61.5113   87.2286   10.4106 C.ar    1  UNL1        0.1059
     21 C          60.2038   87.9521   10.5408 C.ar    1  UNL1        0.0192
     22 C          59.3806   88.2391    9.3202 C.ar    1  UNL1        0.0127
     23 C          59.8649   87.8025    7.9693 C.ar    1  UNL1        0.0578
     24 CL         59.0417   88.0894    6.7487 Cl      1  UNL1       -0.0822
     25 C          61.1724   87.0789    7.8390 C.ar    1  UNL1        0.0127
     26 C          61.9956   86.7920    9.0597 C.ar    1  UNL1        0.0192
     27 N          63.5065   82.4404   14.3909 N.3     1  UNL1       -0.1773
     28 H          64.4785   82.3085   14.6703 H       1  UNL1        0.1486
     29 O          64.4212   81.4880   12.7308 O.2     1  UNL1       -0.1497
     30 S          63.1508   81.2856   13.5022 S.O2    1  UNL1        0.1271
     31 O          61.8804   81.0831   14.2736 O.2     1  UNL1       -0.1497
     32 C          62.7952   80.1307   12.6134 C.3     1  UNL1        0.5357
     33 F          63.1067   80.9640   11.4058 F       1  UNL1       -0.1493
     34 F          62.4836   79.2973   13.8211 F       1  UNL1       -0.1493
     35 F          62.4396   78.9758   11.7247 F       1  UNL1       -0.1493
@<TRIPOS>BOND
     1    29    30    2
     2    30    31    2
     3    30    27    1
     4     1    27    1
     5     1     2    1
     6     2     3    1
     7     3     4    1
     8     4    17    1
     9    17    18    2
    10    17    19    2
    11    17    20    1
    12    20    21   ar
    13    21    22   ar
    14    22    23   ar
    15    23    24    1
    16    23    25   ar
    17    25    26   ar
    18     4     5    1
    19     5     6   ar
    20     6     7    1
    21     6     8   ar
    22     8     9   ar
    23     9    10   ar
    24    10    11    1
    25    10    12   ar
    26    12    13    1
    27    13    14    1
    28    15    14    1
    29    15    16    1
    30    30    32    1
    31    32    33    1
    32    32    34    1
    33    32    35    1
    34    16     1    1
    35    15     4    1
    36    26    20   ar
    37    12     5   ar
    38    27    28    1
@<TRIPOS>MOLECULE
*****
 35 38 0 0 0
SMALL
GASTEIGER

@<TRIPOS>ATOM
      1 C          60.7675   92.4666    3.2084 C.3     1  UNL1        0.0757
      2 C          59.6310   92.7007    2.2578 C.3     1  UNL1        0.0195
      3 C          59.9101   93.0945    0.8376 C.3     1  UNL1        0.0282
      4 C          61.3257   93.2543    0.3680 C.3     1  UNL1        0.1420
      5 C          61.6048   93.6482   -1.0523 C.ar    1  UNL1        0.0616
      6 C          60.4683   93.8823   -2.0028 C.ar    1  UNL1        0.1407
      7 F          58.9749   93.8150   -1.8783 F       1  UNL1       -0.2043
      8 C          60.7474   94.2761   -3.4230 C.ar    1  UNL1        0.0319
      9 C          62.1630   94.4359   -3.8927 C.ar    1  UNL1        0.0351
     10 C          63.2994   94.2018   -2.9421 C.ar    1  UNL1        0.1737
     11 F          64.7151   94.3616   -3.4117 F       1  UNL1       -0.2010
     12 C          63.0203   93.8080   -1.5219 C.ar    1  UNL1        0.1654
     13 O          64.1569   93.5739   -0.5713 O.3     1  UNL1       -0.4733
     14 C          63.8778   93.1800    0.8489 C.3     1  UNL1        0.2074
     15 C          62.4622   93.0202    1.3185 C.3     1  UNL1        0.0698
     16 C          62.1831   92.6264    2.7387 C.3     1  UNL1        0.0231
     17 S          60.1892   93.4884   -0.5826 S.O2    1  UNL1        0.0093
     18 O          60.0146   94.2410   -0.7793 O.2     1  UNL1       -0.1684
     19 O          59.6887   92.1096   -0.8965 O.2     1  UNL1       -0.1684
     20 C          59.0527   93.7225   -1.5332 C.ar    1  UNL1        0.1059
     21 C          58.5753   92.6106   -2.4197 C.ar    1  UNL1        0.0192
     22 C          57.4389   92.8446   -3.3703 C.ar    1  UNL1        0.0127
     23 C          56.7797   94.1905   -3.4344 C.ar    1  UNL1        0.0578
     24 CL         55.6432   94.4245   -4.3850 Cl      1  UNL1       -0.0822
     25 C          57.2570   95.3024   -2.5479 C.ar    1  UNL1        0.0127
     26 C          58.3936   95.0683   -1.5973 C.ar    1  UNL1        0.0192
     27 N          60.4884   92.0727    4.6286 N.3     1  UNL1       -0.1773
     28 H          61.1817   91.3682    4.8804 H       1  UNL1        0.1486
     29 O          58.5070   92.8289    4.6709 O.2     1  UNL1       -0.1497
     30 S          59.1476   91.5137    5.0022 S.O2    1  UNL1        0.1271
     31 O          59.7882   90.1985    5.3335 O.2     1  UNL1       -0.1497
     32 C          57.8067   90.9548    5.3758 C.3     1  UNL1        0.5357
     33 F          58.4766   89.7745    6.0146 F       1  UNL1       -0.1493
     34 F          57.1367   92.1350    4.7370 F       1  UNL1       -0.1493
     35 F          56.4658   90.3958    5.7494 F       1  UNL1       -0.1493
@<TRIPOS>BOND
     1    29    30    2
     2    30    31    2
     3    30    27    1
     4     1    27    1
     5     1     2    1
     6     2     3    1
     7     3     4    1
     8     4    17    1
     9    17    18    2
    10    17    19    2
    11    17    20    1
    12    20    21   ar
    13    21    22   ar
    14    22    23   ar
    15    23    24    1
    16    23    25   ar
    17    25    26   ar
    18     4     5    1
    19     5     6   ar
    20     6     7    1
    21     6     8   ar
    22     8     9   ar
    23     9    10   ar
    24    10    11    1
    25    10    12   ar
    26    12    13    1
    27    13    14    1
    28    15    14    1
    29    15    16    1
    30    30    32    1
    31    32    33    1
    32    32    34    1
    33    32    35    1
    34    16     1    1
    35    15     4    1
    36    26    20   ar
    37    12     5   ar
    38    27    28    1
@<TRIPOS>MOLECULE
*****
 35 38 0 0 0
SMALL
GASTEIGER

@<TRIPOS>ATOM
      1 C          57.7068   92.7756   -2.2740 C.3     1  UNL1        0.0757
      2 C          58.8178   93.1727   -3.2003 C.3     1  UNL1        0.0195
      3 C          60.1936   93.4226   -2.6576 C.3     1  UNL1        0.0282
      4 C          60.4586   93.2753   -1.1885 C.3     1  UNL1        0.1420
      5 C          61.8345   93.5252   -0.6458 C.ar    1  UNL1        0.0616
      6 C          62.9454   93.9223   -1.5721 C.ar    1  UNL1        0.1407
      7 F          63.0357   94.1556   -3.0512 F       1  UNL1       -0.2043
      8 C          64.3213   94.1722   -1.0294 C.ar    1  UNL1        0.0319
      9 C          64.5862   94.0249    0.4396 C.ar    1  UNL1        0.0351
     10 C          63.4753   93.6278    1.3659 C.ar    1  UNL1        0.1737
     11 F          63.7402   93.4805    2.8350 F       1  UNL1       -0.2010
     12 C          62.0994   93.3779    0.8232 C.ar    1  UNL1        0.1654
     13 O          60.9885   92.9808    1.7496 O.3     1  UNL1       -0.4733
     14 C          59.6126   92.7309    1.2069 C.3     1  UNL1        0.2074
     15 C          59.3477   92.8782   -0.2622 C.3     1  UNL1        0.0698
     16 C          57.9718   92.6284   -0.8049 C.3     1  UNL1        0.0231
     17 S          61.5695   93.6725   -2.1148 S.O2    1  UNL1        0.0093
     18 O          62.0751   93.1059   -2.3575 O.2     1  UNL1       -0.1684
     19 O          61.3661   95.1451   -2.3153 O.2     1  UNL1       -0.1684
     20 C          62.6805   94.0696   -3.0412 C.ar    1  UNL1        0.1059
     21 C          63.5069   93.0156   -3.7164 C.ar    1  UNL1        0.0192
     22 C          64.6178   93.4127   -4.6428 C.ar    1  UNL1        0.0127
     23 C          64.9024   94.8640   -4.8939 C.ar    1  UNL1        0.0578
     24 CL         66.0133   95.2611   -5.8202 Cl      1  UNL1       -0.0822
     25 C          64.0759   95.9180   -4.2187 C.ar    1  UNL1        0.0127
     26 C          62.9650   95.5208   -3.2923 C.ar    1  UNL1        0.0192
     27 N          56.3310   92.5258   -2.8167 N.3     1  UNL1       -0.1773
     28 H          55.9054   91.8132   -2.2237 H       1  UNL1        0.1486
     29 O          56.4045   90.6532   -3.8105 O.2     1  UNL1       -0.1497
     30 S          56.1555   92.0701   -4.2349 S.O2    1  UNL1        0.1271
     31 O          55.9064   93.4871   -4.6594 O.2     1  UNL1       -0.1497
     32 C          55.9800   91.6144   -5.6533 C.3     1  UNL1        0.5357
     33 F          57.0770   92.5410   -6.0868 F       1  UNL1       -0.1493
     34 F          54.8830   90.6878   -5.2198 F       1  UNL1       -0.1493
     35 F          55.8045   91.1587   -7.0715 F       1  UNL1       -0.1493
@<TRIPOS>BOND
     1    29    30    2
     2    30    31    2
     3    30    27    1
     4     1    27    1
     5     1     2    1
     6     2     3    1
     7     3     4    1
     8     4    17    1
     9    17    18    2
    10    17    19    2
    11    17    20    1
    12    20    21   ar
    13    21    22   ar
    14    22    23   ar
    15    23    24    1
    16    23    25   ar
    17    25    26   ar
    18     4     5    1
    19     5     6   ar
    20     6     7    1
    21     6     8   ar
    22     8     9   ar
    23     9    10   ar
    24    10    11    1
    25    10    12   ar
    26    12    13    1
    27    13    14    1
    28    15    14    1
    29    15    16    1
    30    30    32    1
    31    32    33    1
    32    32    34    1
    33    32    35    1
    34    16     1    1
    35    15     4    1
    36    26    20   ar
    37    12     5   ar
    38    27    28    1
