@<TRIPOS>MOLECULE
*****
 19 21 0 0 0
SMALL
GASTEIGER

@<TRIPOS>ATOM
      1 C          62.4185   88.6094   10.4897 C.2     1  UNL1        0.0421
      2 C          62.5750   89.3322   11.7946 C.2     1  UNL1        0.0034
      3 C          63.5208   90.4917   11.9011 C.ar    1  UNL1        0.0033
      4 C          63.8717   91.2879   10.6793 C.ar    1  UNL1        0.0033
      5 C          64.8175   92.4473   10.7858 C.ar    1  UNL1        0.0402
      6 C          65.4123   92.8104   12.1140 C.ar    1  UNL1        0.1764
      7 C          65.0614   92.0142   13.3359 C.ar    1  UNL1        0.1764
      8 C          64.1156   90.8548   13.2294 C.ar    1  UNL1        0.0402
      9 O          65.7989   92.6041   14.5012 O.3     1  UNL1       -0.4346
     10 C          66.6056   93.7650   13.9996 C.3     1  UNL1        0.4294
     11 O          66.3667   93.8925   12.5243 O.3     1  UNL1       -0.4346
     12 O          60.5076   87.1649   11.4956 O.2     1  UNL1       -0.2865
     13 C          61.4727   87.4500   10.3833 C.2     1  UNL1        0.1971
     14 C          61.4922   86.5757    9.1645 C.ar    1  UNL1        0.0581
     15 C          62.7542   85.8677    8.7695 C.ar    1  UNL1        0.0063
     16 C          62.7737   84.9935    7.5507 C.ar    1  UNL1        0.0208
     17 C          61.5312   84.8272    6.7270 C.ar    1  UNL1        0.0989
     18 N          60.2691   85.5352    7.1221 N.ar    1  UNL1       -0.2422
     19 C          60.2497   86.4095    8.3408 C.ar    1  UNL1        0.1020
@<TRIPOS>BOND
     1    12    13    2
     2    13     1    1
     3     1     2    2
     4     2     3    1
     5     3     4   ar
     6     4     5   ar
     7     5     6   ar
     8     6     7   ar
     9     7     8   ar
    10     7     9    1
    11     9    10    1
    12    10    11    1
    13    13    14    1
    14    14    15   ar
    15    15    16   ar
    16    16    17   ar
    17    17    18   ar
    18    18    19   ar
    19     8     3   ar
    20    19    14   ar
    21    11     6    1
@<TRIPOS>MOLECULE
*****
 19 21 0 0 0
SMALL
GASTEIGER

@<TRIPOS>ATOM
      1 C          63.4168   85.5243   12.6950 C.2     1  UNL1        0.0421
      2 C          62.3884   85.2362   11.6418 C.2     1  UNL1        0.0034
      3 C          61.8348   86.3538   10.8084 C.ar    1  UNL1        0.0033
      4 C          62.2086   87.7738   11.1145 C.ar    1  UNL1        0.0033
      5 C          61.6550   88.8914   10.2812 C.ar    1  UNL1        0.0402
      6 C          60.7275   88.5890    9.1418 C.ar    1  UNL1        0.1764
      7 C          60.3536   87.1689    8.8357 C.ar    1  UNL1        0.1764
      8 C          60.9072   86.0513    9.6690 C.ar    1  UNL1        0.0402
      9 O          59.4248   87.1777    7.6578 O.3     1  UNL1       -0.4346
     10 C          59.2246   88.6031    7.2360 C.3     1  UNL1        0.4294
     11 O          60.0297   89.4754    8.1531 O.3     1  UNL1       -0.4346
     12 O          65.1655   84.6444   14.4032 O.2     1  UNL1       -0.2865
     13 C          63.9705   84.4067   13.5283 C.2     1  UNL1        0.1971
     14 C          63.3289   83.0514   13.4868 C.ar    1  UNL1        0.0581
     15 C          63.6459   82.1057   12.3664 C.ar    1  UNL1        0.0063
     16 C          63.0044   80.7505   12.3248 C.ar    1  UNL1        0.0208
     17 C          62.0460   80.3409   13.4035 C.ar    1  UNL1        0.0989
     18 N          61.7291   81.2866   14.5240 N.ar    1  UNL1       -0.2422
     19 C          62.3706   82.6418   14.5655 C.ar    1  UNL1        0.1020
@<TRIPOS>BOND
     1    12    13    2
     2    13     1    1
     3     1     2    2
     4     2     3    1
     5     3     4   ar
     6     4     5   ar
     7     5     6   ar
     8     6     7   ar
     9     7     8   ar
    10     7     9    1
    11     9    10    1
    12    10    11    1
    13    13    14    1
    14    14    15   ar
    15    15    16   ar
    16    16    17   ar
    17    17    18   ar
    18    18    19   ar
    19     8     3   ar
    20    19    14   ar
    21    11     6    1
@<TRIPOS>MOLECULE
*****
 19 21 0 0 0
SMALL
GASTEIGER

@<TRIPOS>ATOM
      1 C          61.6867   89.5710   11.1432 C.2     1  UNL1        0.0421
      2 C          62.7928   89.4296   12.1465 C.2     1  UNL1        0.0034
      3 C          63.7873   90.5379   12.3278 C.ar    1  UNL1        0.0033
      4 C          64.5210   90.6819   13.6281 C.ar    1  UNL1        0.0033
      5 C          65.5154   91.7901   13.8093 C.ar    1  UNL1        0.0402
      6 C          65.7762   92.7543   12.6902 C.ar    1  UNL1        0.1764
      7 C          65.0424   92.6103   11.3899 C.ar    1  UNL1        0.1764
      8 C          64.0480   91.5021   11.2086 C.ar    1  UNL1        0.0402
      9 O          65.5049   93.7037   10.4731 O.3     1  UNL1       -0.4346
     10 C          66.5244   94.5235   11.2068 C.3     1  UNL1        0.4294
     11 O          66.6921   93.9368   12.5771 O.3     1  UNL1       -0.4346
     12 O          59.5495   88.3160   11.9224 O.2     1  UNL1       -0.2865
     13 C          60.6923   88.4628   10.9620 C.2     1  UNL1        0.1971
     14 C          60.8407   87.5013    9.8202 C.ar    1  UNL1        0.0581
     15 C          62.1368   86.7744    9.6156 C.ar    1  UNL1        0.0063
     16 C          62.2852   85.8129    8.4739 C.ar    1  UNL1        0.0208
     17 C          61.1377   85.5783    7.5368 C.ar    1  UNL1        0.0989
     18 N          59.8416   86.3052    7.7415 N.ar    1  UNL1       -0.2422
     19 C          59.6932   87.2667    8.8832 C.ar    1  UNL1        0.1020
@<TRIPOS>BOND
     1    12    13    2
     2    13     1    1
     3     1     2    2
     4     2     3    1
     5     3     4   ar
     6     4     5   ar
     7     5     6   ar
     8     6     7   ar
     9     7     8   ar
    10     7     9    1
    11     9    10    1
    12    10    11    1
    13    13    14    1
    14    14    15   ar
    15    15    16   ar
    16    16    17   ar
    17    17    18   ar
    18    18    19   ar
    19     8     3   ar
    20    19    14   ar
    21    11     6    1
@<TRIPOS>MOLECULE
*****
 19 21 0 0 0
SMALL
GASTEIGER

@<TRIPOS>ATOM
      1 C          64.2867   86.9334   14.2366 C.2     1  UNL1        0.0421
      2 C          63.9803   88.2782   14.8261 C.2     1  UNL1        0.0034
      3 C          64.2870   89.5248   14.0501 C.ar    1  UNL1        0.0033
      4 C          63.5712   89.8011   12.7613 C.ar    1  UNL1        0.0033
      5 C          63.8779   91.0476   11.9853 C.ar    1  UNL1        0.0402
      6 C          64.9003   92.0178   12.4982 C.ar    1  UNL1        0.1764
      7 C          65.6162   91.7416   13.7871 C.ar    1  UNL1        0.1764
      8 C          65.3095   90.4951   14.5631 C.ar    1  UNL1        0.0402
      9 O          66.5672   92.8735   14.0410 O.3     1  UNL1       -0.4346
     10 C          66.4391   93.8492   12.9090 C.3     1  UNL1        0.4294
     11 O          65.4090   93.3204   11.9555 O.3     1  UNL1       -0.4346
     12 O          64.0178   85.7085   16.5119 O.2     1  UNL1       -0.2865
     13 C          63.9800   85.6869   15.0126 C.2     1  UNL1        0.1971
     14 C          63.6356   84.4188   14.2891 C.ar    1  UNL1        0.0581
     15 C          63.0995   84.4759   12.8893 C.ar    1  UNL1        0.0063
     16 C          62.7551   83.2078   12.1658 C.ar    1  UNL1        0.0208
     17 C          62.9468   81.8827   12.8421 C.ar    1  UNL1        0.0989
     18 N          63.4829   81.8256   14.2419 N.ar    1  UNL1       -0.2422
     19 C          63.8272   83.0937   14.9653 C.ar    1  UNL1        0.1020
@<TRIPOS>BOND
     1    12    13    2
     2    13     1    1
     3     1     2    2
     4     2     3    1
     5     3     4   ar
     6     4     5   ar
     7     5     6   ar
     8     6     7   ar
     9     7     8   ar
    10     7     9    1
    11     9    10    1
    12    10    11    1
    13    13    14    1
    14    14    15   ar
    15    15    16   ar
    16    16    17   ar
    17    17    18   ar
    18    18    19   ar
    19     8     3   ar
    20    19    14   ar
    21    11     6    1
@<TRIPOS>MOLECULE
*****
 19 21 0 0 0
SMALL
GASTEIGER

@<TRIPOS>ATOM
      1 C          62.6984   89.1402   11.4383 C.2     1  UNL1        0.0421
      2 C          63.2654   89.3905   12.8042 C.2     1  UNL1        0.0034
      3 C          64.2149   90.5307   13.0247 C.ar    1  UNL1        0.0033
      4 C          64.3764   91.5866   11.9718 C.ar    1  UNL1        0.0033
      5 C          65.3258   92.7267   12.1923 C.ar    1  UNL1        0.0402
      6 C          66.1138   92.8109   13.4658 C.ar    1  UNL1        0.1764
      7 C          65.9523   91.7550   14.5189 C.ar    1  UNL1        0.1764
      8 C          65.0029   90.6149   14.2984 C.ar    1  UNL1        0.0402
      9 O          66.8564   92.1009   15.6647 O.3     1  UNL1       -0.4346
     10 C          67.5767   93.3707   15.3198 C.3     1  UNL1        0.4294
     11 O          67.1177   93.8095   13.9608 O.3     1  UNL1       -0.4346
     12 O          60.2983   88.1539   11.5669 O.2     1  UNL1       -0.2865
     13 C          61.7490   88.0001   11.2177 C.2     1  UNL1        0.1971
     14 C          62.2503   86.7061   10.6481 C.ar    1  UNL1        0.0581
     15 C          62.4563   86.5679    9.1687 C.ar    1  UNL1        0.0063
     16 C          62.9576   85.2740    8.5990 C.ar    1  UNL1        0.0208
     17 C          63.2529   84.1184    9.5086 C.ar    1  UNL1        0.0989
     18 N          63.0468   84.2567   10.9880 N.ar    1  UNL1       -0.2422
     19 C          62.5455   85.5506   11.5576 C.ar    1  UNL1        0.1020
@<TRIPOS>BOND
     1    12    13    2
     2    13     1    1
     3     1     2    2
     4     2     3    1
     5     3     4   ar
     6     4     5   ar
     7     5     6   ar
     8     6     7   ar
     9     7     8   ar
    10     7     9    1
    11     9    10    1
    12    10    11    1
    13    13    14    1
    14    14    15   ar
    15    15    16   ar
    16    16    17   ar
    17    17    18   ar
    18    18    19   ar
    19     8     3   ar
    20    19    14   ar
    21    11     6    1
@<TRIPOS>MOLECULE
*****
 19 21 0 0 0
SMALL
GASTEIGER

@<TRIPOS>ATOM
      1 C          61.9562   90.7140   10.7420 C.2     1  UNL1        0.0421
      2 C          62.5979   90.5349   12.0859 C.2     1  UNL1        0.0034
      3 C          63.9492   91.1271   12.3568 C.ar    1  UNL1        0.0033
      4 C          64.6398   91.9351   11.2984 C.ar    1  UNL1        0.0033
      5 C          65.9910   92.5273   11.5692 C.ar    1  UNL1        0.0402
      6 C          66.6517   92.3115   12.8984 C.ar    1  UNL1        0.1764
      7 C          65.9612   91.5035   13.9569 C.ar    1  UNL1        0.1764
      8 C          64.6099   90.9113   13.6861 C.ar    1  UNL1        0.0402
      9 O          66.8525   91.4605   15.1626 O.3     1  UNL1       -0.4346
     10 C          68.0940   92.2419   14.8493 C.3     1  UNL1        0.4294
     11 O          67.9699   92.7678   13.4500 O.3     1  UNL1       -0.4346
     12 O          59.3679   90.8340   10.9322 O.2     1  UNL1       -0.2865
     13 C          60.6049   90.1218   10.4712 C.2     1  UNL1        0.1971
     14 C          60.4908   88.8173    9.7394 C.ar    1  UNL1        0.0581
     15 C          59.8298   88.7677    8.3938 C.ar    1  UNL1        0.0063
     16 C          59.7156   87.4633    7.6620 C.ar    1  UNL1        0.0208
     17 C          60.2624   86.2086    8.2757 C.ar    1  UNL1        0.0989
     18 N          60.9235   86.2583    9.6213 N.ar    1  UNL1       -0.2422
     19 C          61.0376   87.5627   10.3531 C.ar    1  UNL1        0.1020
@<TRIPOS>BOND
     1    12    13    2
     2    13     1    1
     3     1     2    2
     4     2     3    1
     5     3     4   ar
     6     4     5   ar
     7     5     6   ar
     8     6     7   ar
     9     7     8   ar
    10     7     9    1
    11     9    10    1
    12    10    11    1
    13    13    14    1
    14    14    15   ar
    15    15    16   ar
    16    16    17   ar
    17    17    18   ar
    18    18    19   ar
    19     8     3   ar
    20    19    14   ar
    21    11     6    1
@<TRIPOS>MOLECULE
*****
 19 21 0 0 0
SMALL
GASTEIGER

@<TRIPOS>ATOM
      1 C          64.5242   88.0547   14.5771 C.2     1  UNL1        0.0421
      2 C          64.2241   89.4835   14.9212 C.2     1  UNL1        0.0034
      3 C          64.9167   90.5932   14.1870 C.ar    1  UNL1        0.0033
      4 C          66.1151   91.2605   14.7938 C.ar    1  UNL1        0.0033
      5 C          66.8077   92.3702   14.0596 C.ar    1  UNL1        0.0402
      6 C          66.3018   92.8125   12.7186 C.ar    1  UNL1        0.1764
      7 C          65.1033   92.1451   12.1117 C.ar    1  UNL1        0.1764
      8 C          64.4107   91.0355   12.8459 C.ar    1  UNL1        0.0402
      9 O          64.8354   92.7910   10.7847 O.3     1  UNL1       -0.4346
     10 C          65.8683   93.8576   10.5714 C.3     1  UNL1        0.4294
     11 O          66.7746   93.8708   11.7666 O.3     1  UNL1       -0.4346
     12 O          63.1671   87.2174   16.6282 O.2     1  UNL1       -0.2865
     13 C          63.8316   86.9451   15.3113 C.2     1  UNL1        0.1971
     14 C          63.8036   85.5632   14.7285 C.ar    1  UNL1        0.0581
     15 C          63.6694   85.3770   13.2462 C.ar    1  UNL1        0.0063
     16 C          63.6414   83.9952   12.6634 C.ar    1  UNL1        0.0208
     17 C          63.7476   82.7995   13.5629 C.ar    1  UNL1        0.0989
     18 N          63.8818   82.9857   15.0453 N.ar    1  UNL1       -0.2422
     19 C          63.9098   84.3676   15.6280 C.ar    1  UNL1        0.1020
@<TRIPOS>BOND
     1    12    13    2
     2    13     1    1
     3     1     2    2
     4     2     3    1
     5     3     4   ar
     6     4     5   ar
     7     5     6   ar
     8     6     7   ar
     9     7     8   ar
    10     7     9    1
    11     9    10    1
    12    10    11    1
    13    13    14    1
    14    14    15   ar
    15    15    16   ar
    16    16    17   ar
    17    17    18   ar
    18    18    19   ar
    19     8     3   ar
    20    19    14   ar
    21    11     6    1
@<TRIPOS>MOLECULE
*****
 19 21 0 0 0
SMALL
GASTEIGER

@<TRIPOS>ATOM
      1 C          62.6774   88.7962   11.1941 C.2     1  UNL1        0.0421
      2 C          63.1351   89.2880   12.5353 C.2     1  UNL1        0.0034
      3 C          64.0325   90.4863   12.6286 C.ar    1  UNL1        0.0033
      4 C          64.7958   90.7552   13.8915 C.ar    1  UNL1        0.0033
      5 C          65.6932   91.9535   13.9847 C.ar    1  UNL1        0.0402
      6 C          65.8273   92.8829   12.8150 C.ar    1  UNL1        0.1764
      7 C          65.0641   92.6140   11.5520 C.ar    1  UNL1        0.1764
      8 C          64.1667   91.4157   11.4588 C.ar    1  UNL1        0.0402
      9 O          65.3946   93.6992   10.5707 O.3     1  UNL1       -0.4346
     10 C          66.3622   94.6388   11.2271 C.3     1  UNL1        0.4294
     11 O          66.6296   94.1343   12.6142 O.3     1  UNL1       -0.4346
     12 O          60.3347   87.7116   11.4858 O.2     1  UNL1       -0.2865
     13 C          61.7800   87.5979   11.1009 C.2     1  UNL1        0.1971
     14 C          62.3280   86.2860   10.6227 C.ar    1  UNL1        0.0581
     15 C          62.6197   86.0814    9.1657 C.ar    1  UNL1        0.0063
     16 C          63.1676   84.7695    8.6875 C.ar    1  UNL1        0.0208
     17 C          63.4240   83.6622    9.6663 C.ar    1  UNL1        0.0989
     18 N          63.1323   83.8668   11.1235 N.ar    1  UNL1       -0.2422
     19 C          62.5843   85.1788   11.6016 C.ar    1  UNL1        0.1020
@<TRIPOS>BOND
     1    12    13    2
     2    13     1    1
     3     1     2    2
     4     2     3    1
     5     3     4   ar
     6     4     5   ar
     7     5     6   ar
     8     6     7   ar
     9     7     8   ar
    10     7     9    1
    11     9    10    1
    12    10    11    1
    13    13    14    1
    14    14    15   ar
    15    15    16   ar
    16    16    17   ar
    17    17    18   ar
    18    18    19   ar
    19     8     3   ar
    20    19    14   ar
    21    11     6    1
@<TRIPOS>MOLECULE
*****
 19 21 0 0 0
SMALL
GASTEIGER

@<TRIPOS>ATOM
      1 C          64.0686   90.3701   14.2638 C.2     1  UNL1        0.0421
      2 C          63.1891   90.8555   13.1499 C.2     1  UNL1        0.0034
      3 C          62.6395   89.8820   12.1496 C.ar    1  UNL1        0.0033
      4 C          63.0754   88.4472   12.1818 C.ar    1  UNL1        0.0033
      5 C          62.5259   87.4737   11.1816 C.ar    1  UNL1        0.0402
      6 C          61.5406   87.9352   10.1491 C.ar    1  UNL1        0.1764
      7 C          61.1047   89.3701   10.1169 C.ar    1  UNL1        0.1764
      8 C          61.6541   90.3436   11.1171 C.ar    1  UNL1        0.0402
      9 O          60.1272   89.5325    8.9907 O.3     1  UNL1       -0.4346
     10 C          59.9590   88.1979    8.3270 C.3     1  UNL1        0.4294
     11 O          60.8325   87.2107    9.0429 O.3     1  UNL1       -0.4346
     12 O          63.7615   91.8131   16.4023 O.2     1  UNL1       -0.2865
     13 C          64.6181   91.3435   15.2640 C.2     1  UNL1        0.1971
     14 C          66.0243   91.8474   15.1259 C.ar    1  UNL1        0.0581
     15 C          66.6569   92.6211   16.2444 C.ar    1  UNL1        0.0063
     16 C          68.0630   93.1249   16.1063 C.ar    1  UNL1        0.0208
     17 C          68.8364   92.8550   14.8498 C.ar    1  UNL1        0.0989
     18 N          68.2037   92.0812   13.7312 N.ar    1  UNL1       -0.2422
     19 C          66.7976   91.5775   13.8694 C.ar    1  UNL1        0.1020
@<TRIPOS>BOND
     1    12    13    2
     2    13     1    1
     3     1     2    2
     4     2     3    1
     5     3     4   ar
     6     4     5   ar
     7     5     6   ar
     8     6     7   ar
     9     7     8   ar
    10     7     9    1
    11     9    10    1
    12    10    11    1
    13    13    14    1
    14    14    15   ar
    15    15    16   ar
    16    16    17   ar
    17    17    18   ar
    18    18    19   ar
    19     8     3   ar
    20    19    14   ar
    21    11     6    1
