@<TRIPOS>MOLECULE
*****
 44 48 0 0 0
SMALL
GASTEIGER

@<TRIPOS>ATOM
      1 C          62.5831   89.6069   11.4731 C.2     1  UNL1        0.2411
      2 O          61.8401   90.3558   12.5394 O.2     1  UNL1       -0.2733
      3 N          63.6970   90.2763   10.7240 N.am    1  UNL1       -0.2966
      4 H          64.1846   89.7848   10.0242 H       1  UNL1        0.1499
      5 C          62.2122   88.1884   11.1558 C.3     1  UNL1        0.1554
      6 C          63.6259   87.3417   13.1644 C.2     1  UNL1        0.4017
      7 O          63.7753   88.7518   13.6537 O.2     1  UNL1       -0.2264
      8 N          62.8444   87.0601   11.9154 N.am    1  UNL1       -0.2637
      9 H          62.7464   86.1346   11.5943 H       1  UNL1        0.1532
     10 O          64.2581   86.2134   13.9241 O.3     1  UNL1       -0.4419
     11 C          63.7010   85.9496   15.9538 C.3     1  UNL1        0.0437
     12 C          63.3980   85.2364   14.6695 C.3     1  UNL1        0.1378
     13 C          63.0950   84.5232   13.3852 C.3     1  UNL1        0.0437
     14 C          62.5379   84.2594   15.4150 C.3     1  UNL1        0.0437
     15 C          61.2092   87.8985   10.0789 C.3     1  UNL1        0.0553
     16 C          61.4955   86.8435    9.0516 C.ar    1  UNL1       -0.0161
     17 C          62.7020   85.9641    9.1959 C.ar    1  UNL1       -0.0042
     18 C          62.9882   84.9092    8.1686 C.ar    1  UNL1       -0.0003
     19 C          62.0680   84.7337    6.9972 C.ar    1  UNL1       -0.0001
     20 C          60.8614   85.6131    6.8530 C.ar    1  UNL1        0.0035
     21 C          60.5752   86.6680    7.8802 C.ar    1  UNL1        0.0675
     22 C          59.3686   87.5475    7.7360 C.3     1  UNL1        0.4183
     23 F          58.1620   88.4269    7.5918 F       1  UNL1       -0.1659
     24 F          58.5204   86.4888    8.3761 F       1  UNL1       -0.1659
     25 F          60.2167   88.6062    7.0959 F       1  UNL1       -0.1659
     26 C          64.0679   91.6947   11.0413 C.3     1  UNL1        0.1543
     27 C          64.9924   91.9903   12.1849 C.ar    1  UNL1        0.1417
     28 N          64.6481   91.9035   13.6422 N.ar    1  UNL1       -0.2276
     29 C          65.8665   92.2842   14.4299 C.ar    1  UNL1        0.1167
     30 C          66.1185   92.3791   15.9055 C.ar    1  UNL1        0.0238
     31 C          67.4679   92.7962   16.4106 C.ar    1  UNL1        0.0223
     32 C          68.5653   93.1183   15.4401 C.ar    1  UNL1        0.1006
     33 N          68.3133   93.0233   13.9645 N.ar    1  UNL1       -0.2252
     34 C          66.9640   92.6063   13.4594 C.ar    1  UNL1        0.1626
     35 N          66.4237   92.4246   12.0719 N.ar    1  UNL1       -0.2990
     36 C          67.1817   92.6396   10.7955 C.3     1  UNL1        0.0898
     37 C          68.0853   92.3668    9.6297 C.3     1  UNL1        0.0273
     38 C          67.8641   91.3096   10.6705 C.3     1  UNL1        0.0273
     39 C          66.7628   94.0443   10.4771 C.ar    1  UNL1       -0.0037
     40 C          66.1114   94.8897   11.5311 C.ar    1  UNL1       -0.0025
     41 C          65.6924   96.2944   11.2128 C.ar    1  UNL1       -0.0003
     42 C          65.9248   96.8536    9.8404 C.ar    1  UNL1       -0.0000
     43 C          66.5762   96.0081    8.7864 C.ar    1  UNL1       -0.0003
     44 C          66.9951   94.6034    9.1048 C.ar    1  UNL1       -0.0025
@<TRIPOS>BOND
     1    11    12    1
     2    12    13    1
     3    12    14    1
     4    12    10    1
     5    10     6    1
     6     6     7    2
     7     6     8   am
     8     8     5    1
     9     5    15    1
    10    15    16    1
    11    16    17   ar
    12    17    18   ar
    13    18    19   ar
    14    19    20   ar
    15    20    21   ar
    16    21    22    1
    17    22    23    1
    18    22    24    1
    19    22    25    1
    20     5     1    1
    21     1     2    2
    22     1     3   am
    23     3    26    1
    24    26    27    1
    25    27    28   ar
    26    28    29   ar
    27    29    30   ar
    28    30    31   ar
    29    31    32   ar
    30    32    33   ar
    31    33    34   ar
    32    34    35   ar
    33    35    36    1
    34    36    39    1
    35    39    40   ar
    36    40    41   ar
    37    41    42   ar
    38    42    43   ar
    39    43    44   ar
    40    36    37    1
    41    37    38    1
    42    21    16   ar
    43    35    27   ar
    44    38    36    1
    45    34    29   ar
    46    44    39   ar
    47     8     9    1
    48     3     4    1
@<TRIPOS>MOLECULE
*****
 44 48 0 0 0
SMALL
GASTEIGER

@<TRIPOS>ATOM
      1 C          62.9912   89.4210   12.0456 C.2     1  UNL1        0.2411
      2 O          62.6185   90.0433   13.3585 O.2     1  UNL1       -0.2733
      3 N          63.7218   90.2279   11.0136 N.am    1  UNL1       -0.2966
      4 H          63.9663   89.8195   10.1519 H       1  UNL1        0.1499
      5 C          62.6333   87.9916   11.7647 C.3     1  UNL1        0.1554
      6 C          60.3267   87.7974   10.5850 C.2     1  UNL1        0.4017
      7 O          59.6492   88.2933   11.8280 O.2     1  UNL1       -0.2264
      8 N          61.8188   87.6465   10.5533 N.am    1  UNL1       -0.2637
      9 H          62.2635   87.3210    9.7375 H       1  UNL1        0.1532
     10 O          59.5122   87.4523    9.3736 O.3     1  UNL1       -0.4419
     11 C          60.0657   89.4672    9.0078 C.3     1  UNL1        0.0437
     12 C          59.5565   88.3371    8.1632 C.3     1  UNL1        0.1378
     13 C          59.0472   87.2070    7.3185 C.3     1  UNL1        0.0437
     14 C          59.6008   89.2219    6.9527 C.3     1  UNL1        0.0437
     15 C          63.0901   86.9073   12.6952 C.3     1  UNL1        0.0553
     16 C          63.2257   85.4990   12.1966 C.ar    1  UNL1       -0.0161
     17 C          62.9790   85.1885   10.7500 C.ar    1  UNL1       -0.0042
     18 C          63.1147   83.7803   10.2515 C.ar    1  UNL1       -0.0003
     19 C          63.4971   82.6827   11.1996 C.ar    1  UNL1       -0.0001
     20 C          63.7439   82.9932   12.6462 C.ar    1  UNL1        0.0035
     21 C          63.6082   84.4014   13.1447 C.ar    1  UNL1        0.0675
     22 C          63.8549   84.7120   14.5913 C.3     1  UNL1        0.4183
     23 F          64.1017   85.0225   16.0379 F       1  UNL1       -0.1659
     24 F          65.3114   84.9187   14.2985 F       1  UNL1       -0.1659
     25 F          62.3984   84.5052   14.8842 F       1  UNL1       -0.1659
     26 C          64.0796   91.6573   11.2945 C.3     1  UNL1        0.1543
     27 C          65.0500   91.9861   12.3900 C.ar    1  UNL1        0.1417
     28 N          64.7717   91.9230   13.8626 N.ar    1  UNL1       -0.2276
     29 C          66.0188   92.3337   14.5881 C.ar    1  UNL1        0.1167
     30 C          66.3346   92.4600   16.0490 C.ar    1  UNL1        0.0238
     31 C          67.6995   92.9033   16.4856 C.ar    1  UNL1        0.0223
     32 C          68.7485   93.2201   15.4613 C.ar    1  UNL1        0.1006
     33 N          68.4326   93.0938   14.0004 N.ar    1  UNL1       -0.2252
     34 C          67.0678   92.6506   13.5638 C.ar    1  UNL1        0.1626
     35 N          66.4690   92.4358   12.2053 N.ar    1  UNL1       -0.2990
     36 C          67.1669   92.6355   10.8927 C.3     1  UNL1        0.0898
     37 C          68.0107   92.3467    9.6866 C.3     1  UNL1        0.0273
     38 C          67.8295   91.2980   10.7437 C.3     1  UNL1        0.0273
     39 C          66.7467   94.0423   10.5857 C.ar    1  UNL1       -0.0037
     40 C          66.8652   94.5722    9.1875 C.ar    1  UNL1       -0.0025
     41 C          66.4449   95.9791    8.8804 C.ar    1  UNL1       -0.0003
     42 C          65.9062   96.8560    9.9717 C.ar    1  UNL1       -0.0000
     43 C          65.7878   96.3260   11.3700 C.ar    1  UNL1       -0.0003
     44 C          66.2080   94.9192   11.6770 C.ar    1  UNL1       -0.0025
@<TRIPOS>BOND
     1    11    12    1
     2    12    13    1
     3    12    14    1
     4    12    10    1
     5    10     6    1
     6     6     7    2
     7     6     8   am
     8     8     5    1
     9     5    15    1
    10    15    16    1
    11    16    17   ar
    12    17    18   ar
    13    18    19   ar
    14    19    20   ar
    15    20    21   ar
    16    21    22    1
    17    22    23    1
    18    22    24    1
    19    22    25    1
    20     5     1    1
    21     1     2    2
    22     1     3   am
    23     3    26    1
    24    26    27    1
    25    27    28   ar
    26    28    29   ar
    27    29    30   ar
    28    30    31   ar
    29    31    32   ar
    30    32    33   ar
    31    33    34   ar
    32    34    35   ar
    33    35    36    1
    34    36    39    1
    35    39    40   ar
    36    40    41   ar
    37    41    42   ar
    38    42    43   ar
    39    43    44   ar
    40    36    37    1
    41    37    38    1
    42    21    16   ar
    43    35    27   ar
    44    38    36    1
    45    34    29   ar
    46    44    39   ar
    47     8     9    1
    48     3     4    1
@<TRIPOS>MOLECULE
*****
 44 48 0 0 0
SMALL
GASTEIGER

@<TRIPOS>ATOM
      1 C          62.8645   89.6859   11.6092 C.2     1  UNL1        0.2411
      2 O          62.1102   90.1394   12.8238 O.2     1  UNL1       -0.2733
      3 N          63.8488   90.6064   10.9506 N.am    1  UNL1       -0.2966
      4 H          64.3438   90.3088   10.1533 H       1  UNL1        0.1499
      5 C          62.6344   88.3119   11.0530 C.3     1  UNL1        0.1554
      6 C          63.2864   87.0010   13.1993 C.2     1  UNL1        0.4017
      7 O          64.3591   88.0087   13.4889 O.2     1  UNL1       -0.2264
      8 N          62.4240   87.1526   11.9813 N.am    1  UNL1       -0.2637
      9 H          61.7200   86.4912   11.7912 H       1  UNL1        0.1532
     10 O          63.0760   85.8417   14.1276 O.3     1  UNL1       -0.4419
     11 C          62.5104   84.0346   13.1715 C.3     1  UNL1        0.0437
     12 C          63.7506   84.5301   13.8543 C.3     1  UNL1        0.1378
     13 C          64.9908   85.0257   14.5371 C.3     1  UNL1        0.0437
     14 C          64.4251   83.2185   13.5810 C.3     1  UNL1        0.0437
     15 C          62.6147   88.0973    9.5686 C.3     1  UNL1        0.0553
     16 C          61.3576   87.6331    8.8945 C.ar    1  UNL1       -0.0161
     17 C          60.2491   88.6063    8.6225 C.ar    1  UNL1       -0.0042
     18 C          58.9921   88.1421    7.9485 C.ar    1  UNL1       -0.0003
     19 C          58.8436   86.7046    7.5465 C.ar    1  UNL1       -0.0001
     20 C          59.9520   85.7314    7.8185 C.ar    1  UNL1        0.0035
     21 C          61.2091   86.1956    8.4925 C.ar    1  UNL1        0.0675
     22 C          62.3176   85.2223    8.7645 C.3     1  UNL1        0.4183
     23 F          63.4262   84.2492    9.0365 F       1  UNL1       -0.1659
     24 F          62.9032   85.5120    7.4143 F       1  UNL1       -0.1659
     25 F          61.7321   84.9327   10.1148 F       1  UNL1       -0.1659
     26 C          64.0789   91.9804   11.5066 C.3     1  UNL1        0.1543
     27 C          65.1021   92.1923   12.5828 C.ar    1  UNL1        0.1417
     28 N          64.8582   92.1077   14.0604 N.ar    1  UNL1       -0.2276
     29 C          66.1542   92.3891   14.7611 C.ar    1  UNL1        0.1167
     30 C          66.5178   92.4433   16.2153 C.ar    1  UNL1        0.0238
     31 C          67.9265   92.7561   16.6250 C.ar    1  UNL1        0.0223
     32 C          68.9715   93.0146   15.5805 C.ar    1  UNL1        0.1006
     33 N          68.6079   92.9604   14.1262 N.ar    1  UNL1       -0.2252
     34 C          67.1993   92.6476   13.7166 C.ar    1  UNL1        0.1626
     35 N          66.5490   92.5260   12.3703 N.ar    1  UNL1       -0.2990
     36 C          67.2267   92.7064   11.0443 C.3     1  UNL1        0.0898
     37 C          68.0666   92.4064    9.8383 C.3     1  UNL1        0.0273
     38 C          67.9290   91.3859   10.9289 C.3     1  UNL1        0.0273
     39 C          66.7599   94.0895   10.6992 C.ar    1  UNL1       -0.0037
     40 C          66.7082   94.5276    9.2656 C.ar    1  UNL1       -0.0025
     41 C          66.2413   95.9107    8.9204 C.ar    1  UNL1       -0.0003
     42 C          65.8261   96.8556   10.0090 C.ar    1  UNL1       -0.0000
     43 C          65.8778   96.4174   11.4426 C.ar    1  UNL1       -0.0003
     44 C          66.3447   95.0343   11.7878 C.ar    1  UNL1       -0.0025
@<TRIPOS>BOND
     1    11    12    1
     2    12    13    1
     3    12    14    1
     4    12    10    1
     5    10     6    1
     6     6     7    2
     7     6     8   am
     8     8     5    1
     9     5    15    1
    10    15    16    1
    11    16    17   ar
    12    17    18   ar
    13    18    19   ar
    14    19    20   ar
    15    20    21   ar
    16    21    22    1
    17    22    23    1
    18    22    24    1
    19    22    25    1
    20     5     1    1
    21     1     2    2
    22     1     3   am
    23     3    26    1
    24    26    27    1
    25    27    28   ar
    26    28    29   ar
    27    29    30   ar
    28    30    31   ar
    29    31    32   ar
    30    32    33   ar
    31    33    34   ar
    32    34    35   ar
    33    35    36    1
    34    36    39    1
    35    39    40   ar
    36    40    41   ar
    37    41    42   ar
    38    42    43   ar
    39    43    44   ar
    40    36    37    1
    41    37    38    1
    42    21    16   ar
    43    35    27   ar
    44    38    36    1
    45    34    29   ar
    46    44    39   ar
    47     8     9    1
    48     3     4    1
@<TRIPOS>MOLECULE
*****
 44 48 0 0 0
SMALL
GASTEIGER

@<TRIPOS>ATOM
      1 C          63.8331   86.9668   13.7729 C.2     1  UNL1        0.2411
      2 O          64.8450   86.6613   14.8372 O.2     1  UNL1       -0.2733
      3 N          63.5192   88.3913   13.4232 N.am    1  UNL1       -0.2966
      4 H          62.8551   88.5918   12.7247 H       1  UNL1        0.1499
      5 C          63.1349   85.8478   13.0584 C.3     1  UNL1        0.1554
      6 C          62.7006   83.7519   14.5311 C.2     1  UNL1        0.4017
      7 O          61.6506   84.5049   15.2930 O.2     1  UNL1       -0.2264
      8 N          63.4427   84.4234   13.4138 N.am    1  UNL1       -0.2637
      9 H          64.1319   83.9292   12.9137 H       1  UNL1        0.1532
     10 O          63.0084   82.3276   14.8865 O.3     1  UNL1       -0.4419
     11 C          61.2751   81.2963   14.2293 C.3     1  UNL1        0.0437
     12 C          62.7366   81.2325   13.8981 C.3     1  UNL1        0.1378
     13 C          64.1982   81.1686   13.5669 C.3     1  UNL1        0.0437
     14 C          62.4647   80.1374   12.9097 C.3     1  UNL1        0.0437
     15 C          62.1289   86.1533   11.9885 C.3     1  UNL1        0.0553
     16 C          62.3822   85.7198   10.5750 C.ar    1  UNL1       -0.0161
     17 C          63.1873   84.4839   10.3024 C.ar    1  UNL1       -0.0042
     18 C          63.4406   84.0505    8.8890 C.ar    1  UNL1       -0.0003
     19 C          62.8889   84.8529    7.7481 C.ar    1  UNL1       -0.0001
     20 C          62.0838   86.0888    8.0207 C.ar    1  UNL1        0.0035
     21 C          61.8304   86.5222    9.4341 C.ar    1  UNL1        0.0675
     22 C          61.0253   87.7582    9.7068 C.3     1  UNL1        0.4183
     23 F          60.2202   88.9940    9.9794 F       1  UNL1       -0.1659
     24 F          59.7652   86.9455    9.6695 F       1  UNL1       -0.1659
     25 F          62.2855   88.5709    9.7441 F       1  UNL1       -0.1659
     26 C          64.2173   89.5103   14.1377 C.3     1  UNL1        0.1543
     27 C          64.6344   90.7375   13.3827 C.ar    1  UNL1        0.1417
     28 N          64.4815   90.9594   11.9071 N.ar    1  UNL1       -0.2276
     29 C          65.0302   92.3173   11.5832 C.ar    1  UNL1        0.1167
     30 C          65.1454   93.0714   10.2917 C.ar    1  UNL1        0.0238
     31 C          65.7526   94.4429   10.2756 C.ar    1  UNL1        0.0223
     32 C          66.2448   95.0602   11.5510 C.ar    1  UNL1        0.1006
     33 N          66.1296   94.3061   12.8425 N.ar    1  UNL1       -0.2252
     34 C          65.5224   92.9347   12.8586 C.ar    1  UNL1        0.1626
     35 N          65.2777   91.9583   13.9708 N.ar    1  UNL1       -0.2990
     36 C          65.6169   92.1662   15.4170 C.3     1  UNL1        0.0898
     37 C          65.4464   92.2735   16.9034 C.3     1  UNL1        0.0273
     38 C          64.2674   91.9487   16.0350 C.3     1  UNL1        0.0273
     39 C          67.0841   92.4559   15.3015 C.ar    1  UNL1       -0.0037
     40 C          67.9352   91.6538   14.3623 C.ar    1  UNL1       -0.0025
     41 C          69.4025   91.9435   14.2467 C.ar    1  UNL1       -0.0003
     42 C          70.0185   93.0353   15.0704 C.ar    1  UNL1       -0.0000
     43 C          69.1673   93.8375   16.0097 C.ar    1  UNL1       -0.0003
     44 C          67.7001   93.5478   16.1252 C.ar    1  UNL1       -0.0025
@<TRIPOS>BOND
     1    11    12    1
     2    12    13    1
     3    12    14    1
     4    12    10    1
     5    10     6    1
     6     6     7    2
     7     6     8   am
     8     8     5    1
     9     5    15    1
    10    15    16    1
    11    16    17   ar
    12    17    18   ar
    13    18    19   ar
    14    19    20   ar
    15    20    21   ar
    16    21    22    1
    17    22    23    1
    18    22    24    1
    19    22    25    1
    20     5     1    1
    21     1     2    2
    22     1     3   am
    23     3    26    1
    24    26    27    1
    25    27    28   ar
    26    28    29   ar
    27    29    30   ar
    28    30    31   ar
    29    31    32   ar
    30    32    33   ar
    31    33    34   ar
    32    34    35   ar
    33    35    36    1
    34    36    39    1
    35    39    40   ar
    36    40    41   ar
    37    41    42   ar
    38    42    43   ar
    39    43    44   ar
    40    36    37    1
    41    37    38    1
    42    21    16   ar
    43    35    27   ar
    44    38    36    1
    45    34    29   ar
    46    44    39   ar
    47     8     9    1
    48     3     4    1
@<TRIPOS>MOLECULE
*****
 44 48 0 0 0
SMALL
GASTEIGER

@<TRIPOS>ATOM
      1 C          63.2941   87.1463   12.9714 C.2     1  UNL1        0.2411
      2 O          64.0053   86.7031   14.2155 O.2     1  UNL1       -0.2733
      3 N          63.2627   88.6000   12.6029 N.am    1  UNL1       -0.2966
      4 H          62.7959   88.8908   11.7863 H       1  UNL1        0.1499
      5 C          62.6143   86.1357   12.0958 C.3     1  UNL1        0.1554
      6 C          61.0997   86.7403   10.0733 C.2     1  UNL1        0.4017
      7 O          62.3037   86.7650    9.1790 O.2     1  UNL1       -0.2264
      8 N          61.2550   86.4257   11.5317 N.am    1  UNL1       -0.2637
      9 H          60.4647   86.4095   12.1186 H       1  UNL1        0.1532
     10 O          59.7404   87.0303    9.5092 O.3     1  UNL1       -0.4419
     11 C          60.1014   89.1000    9.2162 C.3     1  UNL1        0.0437
     12 C          59.5933   87.9800    8.3575 C.3     1  UNL1        0.1378
     13 C          59.0852   86.8600    7.4988 C.3     1  UNL1        0.0437
     14 C          59.4463   88.9298    7.2058 C.3     1  UNL1        0.0437
     15 C          63.2937   84.8352   11.7843 C.3     1  UNL1        0.0553
     16 C          62.9345   83.5983   12.5532 C.ar    1  UNL1       -0.0161
     17 C          62.2047   83.7123   13.8587 C.ar    1  UNL1       -0.0042
     18 C          61.8455   82.4754   14.6275 C.ar    1  UNL1       -0.0003
     19 C          62.2162   81.1246   14.0909 C.ar    1  UNL1       -0.0001
     20 C          62.9461   81.0107   12.7854 C.ar    1  UNL1        0.0035
     21 C          63.3053   82.2476   12.0166 C.ar    1  UNL1        0.0675
     22 C          64.0352   82.1337   10.7110 C.3     1  UNL1        0.4183
     23 F          64.7651   82.0198    9.4056 F       1  UNL1       -0.1659
     24 F          65.0848   83.0791   11.2155 F       1  UNL1       -0.1659
     25 F          62.9856   81.1883   10.2066 F       1  UNL1       -0.1659
     26 C          63.9425   89.6105   13.4784 C.3     1  UNL1        0.1543
     27 C          64.4654   90.8854   12.8858 C.ar    1  UNL1        0.1417
     28 N          64.4101   91.2724   11.4376 N.ar    1  UNL1       -0.2276
     29 C          65.0460   92.6233   11.2941 C.ar    1  UNL1        0.1167
     30 C          65.2747   93.5034   10.1012 C.ar    1  UNL1        0.0238
     31 C          65.9517   94.8315   10.2678 C.ar    1  UNL1        0.0223
     32 C          66.4000   95.2795   11.6273 C.ar    1  UNL1        0.1006
     33 N          66.1713   94.3995   12.8202 N.ar    1  UNL1       -0.2252
     34 C          65.4943   93.0714   12.6537 C.ar    1  UNL1        0.1626
     35 N          65.1355   91.9973   13.6373 N.ar    1  UNL1       -0.2990
     36 C          65.4003   92.0295   15.1134 C.3     1  UNL1        0.0898
     37 C          65.1559   91.9510   16.5913 C.3     1  UNL1        0.0273
     38 C          64.0264   91.7220   15.6313 C.3     1  UNL1        0.0273
     39 C          66.8660   92.3481   15.1083 C.ar    1  UNL1       -0.0037
     40 C          67.4100   93.3908   16.0392 C.ar    1  UNL1       -0.0025
     41 C          68.8759   93.7095   16.0341 C.ar    1  UNL1       -0.0003
     42 C          69.7975   92.9853   15.0980 C.ar    1  UNL1       -0.0000
     43 C          69.2534   91.9425   14.1671 C.ar    1  UNL1       -0.0003
     44 C          67.7876   91.6239   14.1722 C.ar    1  UNL1       -0.0025
@<TRIPOS>BOND
     1    11    12    1
     2    12    13    1
     3    12    14    1
     4    12    10    1
     5    10     6    1
     6     6     7    2
     7     6     8   am
     8     8     5    1
     9     5    15    1
    10    15    16    1
    11    16    17   ar
    12    17    18   ar
    13    18    19   ar
    14    19    20   ar
    15    20    21   ar
    16    21    22    1
    17    22    23    1
    18    22    24    1
    19    22    25    1
    20     5     1    1
    21     1     2    2
    22     1     3   am
    23     3    26    1
    24    26    27    1
    25    27    28   ar
    26    28    29   ar
    27    29    30   ar
    28    30    31   ar
    29    31    32   ar
    30    32    33   ar
    31    33    34   ar
    32    34    35   ar
    33    35    36    1
    34    36    39    1
    35    39    40   ar
    36    40    41   ar
    37    41    42   ar
    38    42    43   ar
    39    43    44   ar
    40    36    37    1
    41    37    38    1
    42    21    16   ar
    43    35    27   ar
    44    38    36    1
    45    34    29   ar
    46    44    39   ar
    47     8     9    1
    48     3     4    1
@<TRIPOS>MOLECULE
*****
 44 48 0 0 0
SMALL
GASTEIGER

@<TRIPOS>ATOM
      1 C          63.5916   86.9232   13.4868 C.2     1  UNL1        0.2411
      2 O          64.2939   86.6845   14.7905 O.2     1  UNL1       -0.2733
      3 N          63.3756   88.3243   12.9968 N.am    1  UNL1       -0.2966
      4 H          62.9146   88.4810   12.1411 H       1  UNL1        0.1499
      5 C          63.1052   85.7607   12.6731 C.3     1  UNL1        0.1554
      6 C          61.5747   86.6030   10.7500 C.2     1  UNL1        0.4017
      7 O          62.7373   87.3320   10.1441 O.2     1  UNL1       -0.2264
      8 N          61.7587   85.8173   12.0145 N.am    1  UNL1       -0.2637
      9 H          60.9957   85.3388   12.4121 H       1  UNL1        0.1532
     10 O          60.2283   86.6596   10.0914 O.3     1  UNL1       -0.4419
     11 C          60.0204   86.4759    7.9883 C.3     1  UNL1        0.0437
     12 C          59.9855   87.6164    8.9619 C.3     1  UNL1        0.1378
     13 C          59.9506   88.7569    9.9356 C.3     1  UNL1        0.0437
     14 C          59.7427   88.5732    7.8324 C.3     1  UNL1        0.0437
     15 C          63.9653   84.5416   12.5180 C.3     1  UNL1        0.0553
     16 C          63.3712   83.1764   12.7007 C.ar    1  UNL1       -0.0161
     17 C          63.3066   82.2255   11.5425 C.ar    1  UNL1       -0.0042
     18 C          62.7125   80.8603   11.7252 C.ar    1  UNL1       -0.0003
     19 C          62.1830   80.4461   13.0661 C.ar    1  UNL1       -0.0001
     20 C          62.2477   81.3970   14.2243 C.ar    1  UNL1        0.0035
     21 C          62.8417   82.7622   14.0416 C.ar    1  UNL1        0.0675
     22 C          62.9064   83.7132   15.1999 C.3     1  UNL1        0.4183
     23 F          62.9709   84.6641   16.3581 F       1  UNL1       -0.1659
     24 F          61.4965   84.1448   14.9242 F       1  UNL1       -0.1659
     25 F          64.3162   83.2816   15.4756 F       1  UNL1       -0.1659
     26 C          63.8619   89.4868   13.8104 C.3     1  UNL1        0.1543
     27 C          64.3824   90.7159   13.1260 C.ar    1  UNL1        0.1417
     28 N          64.3066   91.0055   11.6562 N.ar    1  UNL1       -0.2276
     29 C          64.9474   92.3398   11.4129 C.ar    1  UNL1        0.1167
     30 C          65.1623   93.1367   10.1605 C.ar    1  UNL1        0.0238
     31 C          65.8489   94.4685   10.2275 C.ar    1  UNL1        0.0223
     32 C          66.3208   95.0035   11.5470 C.ar    1  UNL1        0.1006
     33 N          66.1059   94.2067   12.7995 N.ar    1  UNL1       -0.2252
     34 C          65.4193   92.8748   12.7325 C.ar    1  UNL1        0.1626
     35 N          65.0701   91.8712   13.7912 N.ar    1  UNL1       -0.2990
     36 C          65.3580   92.0002   15.2576 C.3     1  UNL1        0.0898
     37 C          65.1366   92.0209   16.7410 C.3     1  UNL1        0.0273
     38 C          63.9915   91.7330   15.8159 C.3     1  UNL1        0.0273
     39 C          66.8243   92.3122   15.2087 C.ar    1  UNL1       -0.0037
     40 C          67.3884   93.4016   16.0718 C.ar    1  UNL1       -0.0025
     41 C          68.8549   93.7137   16.0229 C.ar    1  UNL1       -0.0003
     42 C          69.7570   92.9362   15.1109 C.ar    1  UNL1       -0.0000
     43 C          69.1929   91.8468   14.2478 C.ar    1  UNL1       -0.0003
     44 C          67.7265   91.5348   14.2967 C.ar    1  UNL1       -0.0025
@<TRIPOS>BOND
     1    11    12    1
     2    12    13    1
     3    12    14    1
     4    12    10    1
     5    10     6    1
     6     6     7    2
     7     6     8   am
     8     8     5    1
     9     5    15    1
    10    15    16    1
    11    16    17   ar
    12    17    18   ar
    13    18    19   ar
    14    19    20   ar
    15    20    21   ar
    16    21    22    1
    17    22    23    1
    18    22    24    1
    19    22    25    1
    20     5     1    1
    21     1     2    2
    22     1     3   am
    23     3    26    1
    24    26    27    1
    25    27    28   ar
    26    28    29   ar
    27    29    30   ar
    28    30    31   ar
    29    31    32   ar
    30    32    33   ar
    31    33    34   ar
    32    34    35   ar
    33    35    36    1
    34    36    39    1
    35    39    40   ar
    36    40    41   ar
    37    41    42   ar
    38    42    43   ar
    39    43    44   ar
    40    36    37    1
    41    37    38    1
    42    21    16   ar
    43    35    27   ar
    44    38    36    1
    45    34    29   ar
    46    44    39   ar
    47     8     9    1
    48     3     4    1
@<TRIPOS>MOLECULE
*****
 44 48 0 0 0
SMALL
GASTEIGER

@<TRIPOS>ATOM
      1 C          63.9312   91.4153   11.2732 C.2     1  UNL1        0.2411
      2 O          63.0433   91.5754   10.0749 O.2     1  UNL1       -0.2733
      3 N          63.6345   90.3533   12.2901 N.am    1  UNL1       -0.2966
      4 H          64.2173   90.2482   13.0766 H       1  UNL1        0.1499
      5 C          65.1160   92.3172   11.4546 C.3     1  UNL1        0.1554
      6 C          66.7561   92.8080   13.4089 C.2     1  UNL1        0.4017
      7 O          67.8421   92.0710   12.6826 O.2     1  UNL1       -0.2264
      8 N          65.3931   92.9311   12.7949 N.am    1  UNL1       -0.2637
      9 H          64.6803   93.4148   13.2716 H       1  UNL1        0.1532
     10 O          67.0332   93.4218   14.7492 O.3     1  UNL1       -0.4419
     11 C          67.3896   91.4788   15.5223 C.3     1  UNL1        0.0437
     12 C          68.0624   92.8129   15.6547 C.3     1  UNL1        0.1378
     13 C          68.7352   94.1469   15.7871 C.3     1  UNL1        0.0437
     14 C          69.0916   92.2039   16.5602 C.3     1  UNL1        0.0437
     15 C          66.0238   92.6053   10.2957 C.3     1  UNL1        0.0553
     16 C          66.3828   94.0221    9.9583 C.ar    1  UNL1       -0.0161
     17 C          65.5242   95.1503   10.4480 C.ar    1  UNL1       -0.0042
     18 C          65.8833   96.5671   10.1107 C.ar    1  UNL1       -0.0003
     19 C          67.1010   96.8556    9.2836 C.ar    1  UNL1       -0.0001
     20 C          67.9595   95.7273    8.7939 C.ar    1  UNL1        0.0035
     21 C          67.6005   94.3106    9.1313 C.ar    1  UNL1        0.0675
     22 C          68.4591   93.1823    8.6415 C.3     1  UNL1        0.4183
     23 F          69.3176   92.0540    8.1518 F       1  UNL1       -0.1659
     24 F          68.1483   93.5611    7.2239 F       1  UNL1       -0.1659
     25 F          68.7698   92.8034   10.0592 F       1  UNL1       -0.1659
     26 C          62.4497   89.4514   12.1087 C.3     1  UNL1        0.1543
     27 C          62.6211   87.9632   12.1867 C.ar    1  UNL1        0.1417
     28 N          63.5665   87.2308   13.0920 N.ar    1  UNL1       -0.2276
     29 C          63.4069   85.7611   12.8379 C.ar    1  UNL1        0.1167
     30 C          64.0774   84.5604   13.4366 C.ar    1  UNL1        0.0238
     31 C          63.7037   83.1837   12.9729 C.ar    1  UNL1        0.0223
     32 C          62.6596   83.0078   11.9105 C.ar    1  UNL1        0.1006
     33 N          61.9891   84.2085   11.3117 N.ar    1  UNL1       -0.2252
     34 C          62.3628   85.5852   11.7754 C.ar    1  UNL1        0.1626
     35 N          61.8771   86.9462   11.3730 N.ar    1  UNL1       -0.2990
     36 C          60.8311   87.2387   10.3384 C.3     1  UNL1        0.0898
     37 C          59.5973   87.8081    9.7032 C.3     1  UNL1        0.0273
     38 C          59.9269   88.1373   11.1290 C.3     1  UNL1        0.0273
     39 C          61.3720   86.4418    9.1885 C.ar    1  UNL1       -0.0037
     40 C          60.4462   85.9495    8.1160 C.ar    1  UNL1       -0.0025
     41 C          60.9871   85.1525    6.9660 C.ar    1  UNL1       -0.0003
     42 C          62.4538   84.8479    6.8887 C.ar    1  UNL1       -0.0000
     43 C          63.3797   85.3403    7.9613 C.ar    1  UNL1       -0.0003
     44 C          62.8388   86.1372    9.1112 C.ar    1  UNL1       -0.0025
@<TRIPOS>BOND
     1    11    12    1
     2    12    13    1
     3    12    14    1
     4    12    10    1
     5    10     6    1
     6     6     7    2
     7     6     8   am
     8     8     5    1
     9     5    15    1
    10    15    16    1
    11    16    17   ar
    12    17    18   ar
    13    18    19   ar
    14    19    20   ar
    15    20    21   ar
    16    21    22    1
    17    22    23    1
    18    22    24    1
    19    22    25    1
    20     5     1    1
    21     1     2    2
    22     1     3   am
    23     3    26    1
    24    26    27    1
    25    27    28   ar
    26    28    29   ar
    27    29    30   ar
    28    30    31   ar
    29    31    32   ar
    30    32    33   ar
    31    33    34   ar
    32    34    35   ar
    33    35    36    1
    34    36    39    1
    35    39    40   ar
    36    40    41   ar
    37    41    42   ar
    38    42    43   ar
    39    43    44   ar
    40    36    37    1
    41    37    38    1
    42    21    16   ar
    43    35    27   ar
    44    38    36    1
    45    34    29   ar
    46    44    39   ar
    47     8     9    1
    48     3     4    1
@<TRIPOS>MOLECULE
*****
 44 48 0 0 0
SMALL
GASTEIGER

@<TRIPOS>ATOM
      1 C          63.2524   87.6328   12.4506 C.2     1  UNL1        0.2411
      2 O          63.8156   87.1070   13.7375 O.2     1  UNL1       -0.2733
      3 N          63.3328   89.0981   12.1399 N.am    1  UNL1       -0.2966
      4 H          62.9631   89.4432   11.2952 H       1  UNL1        0.1499
      5 C          62.6087   86.6933   11.4743 C.3     1  UNL1        0.1554
      6 C          62.6958   84.1584   12.0370 C.2     1  UNL1        0.4017
      7 O          64.1349   84.1145   11.6162 O.2     1  UNL1       -0.2264
      8 N          61.9327   85.4479   11.9660 N.am    1  UNL1       -0.2637
      9 H          60.9882   85.4768   12.2422 H       1  UNL1        0.1532
     10 O          62.0198   82.9130   12.5288 O.3     1  UNL1       -0.4419
     11 C          62.8525   81.0696   11.8898 C.3     1  UNL1        0.0437
     12 C          62.8262   81.8302   13.1824 C.3     1  UNL1        0.1378
     13 C          62.7999   82.5908   14.4749 C.3     1  UNL1        0.0437
     14 C          63.6326   80.7473   13.8360 C.3     1  UNL1        0.0437
     15 C          62.6411   86.9994   10.0062 C.3     1  UNL1        0.0553
     16 C          61.3892   86.8830    9.1880 C.ar    1  UNL1       -0.0161
     17 C          61.2613   85.7950    8.1635 C.ar    1  UNL1       -0.0042
     18 C          60.0094   85.6786    7.3454 C.ar    1  UNL1       -0.0003
     19 C          58.8855   86.6503    7.5518 C.ar    1  UNL1       -0.0001
     20 C          59.0135   87.7384    8.5764 C.ar    1  UNL1        0.0035
     21 C          60.2653   87.8547    9.3945 C.ar    1  UNL1        0.0675
     22 C          60.3933   88.9428   10.4191 C.3     1  UNL1        0.4183
     23 F          60.5213   90.0308   11.4436 F       1  UNL1       -0.1659
     24 F          61.1223   89.7950    9.4230 F       1  UNL1       -0.1659
     25 F          59.6642   88.0906   11.4152 F       1  UNL1       -0.1659
     26 C          63.9764   90.0376   13.1161 C.3     1  UNL1        0.1543
     27 C          64.5541   91.3365   12.6376 C.ar    1  UNL1        0.1417
     28 N          64.5342   91.8435   11.2260 N.ar    1  UNL1       -0.2276
     29 C          65.2209   93.1769   11.2027 C.ar    1  UNL1        0.1167
     30 C          65.4991   94.1432   10.0897 C.ar    1  UNL1        0.0238
     31 C          66.2215   95.4267   10.3739 C.ar    1  UNL1        0.0223
     32 C          66.6657   95.7438   11.7711 C.ar    1  UNL1        0.1006
     33 N          66.3875   94.7775   12.8840 N.ar    1  UNL1       -0.2252
     34 C          65.6652   93.4940   12.5998 C.ar    1  UNL1        0.1626
     35 N          65.2530   92.3566   13.4867 N.ar    1  UNL1       -0.2990
     36 C          65.4970   92.2569   14.9633 C.3     1  UNL1        0.0898
     37 C          65.2260   92.0793   16.4279 C.3     1  UNL1        0.0273
     38 C          64.0989   91.9983   15.4415 C.3     1  UNL1        0.0273
     39 C          66.9798   92.4808   14.9981 C.ar    1  UNL1       -0.0037
     40 C          67.5700   93.4422   15.9866 C.ar    1  UNL1       -0.0025
     41 C          69.0529   93.6661   16.0213 C.ar    1  UNL1       -0.0003
     42 C          69.9453   92.9286   15.0676 C.ar    1  UNL1       -0.0000
     43 C          69.3549   91.9671   14.0791 C.ar    1  UNL1       -0.0003
     44 C          67.8722   91.7432   14.0443 C.ar    1  UNL1       -0.0025
@<TRIPOS>BOND
     1    11    12    1
     2    12    13    1
     3    12    14    1
     4    12    10    1
     5    10     6    1
     6     6     7    2
     7     6     8   am
     8     8     5    1
     9     5    15    1
    10    15    16    1
    11    16    17   ar
    12    17    18   ar
    13    18    19   ar
    14    19    20   ar
    15    20    21   ar
    16    21    22    1
    17    22    23    1
    18    22    24    1
    19    22    25    1
    20     5     1    1
    21     1     2    2
    22     1     3   am
    23     3    26    1
    24    26    27    1
    25    27    28   ar
    26    28    29   ar
    27    29    30   ar
    28    30    31   ar
    29    31    32   ar
    30    32    33   ar
    31    33    34   ar
    32    34    35   ar
    33    35    36    1
    34    36    39    1
    35    39    40   ar
    36    40    41   ar
    37    41    42   ar
    38    42    43   ar
    39    43    44   ar
    40    36    37    1
    41    37    38    1
    42    21    16   ar
    43    35    27   ar
    44    38    36    1
    45    34    29   ar
    46    44    39   ar
    47     8     9    1
    48     3     4    1
@<TRIPOS>MOLECULE
*****
 44 48 0 0 0
SMALL
GASTEIGER

@<TRIPOS>ATOM
      1 C          62.1182   88.7087   12.1342 C.2     1  UNL1        0.2411
      2 O          61.2415   89.8645   12.5156 O.2     1  UNL1       -0.2733
      3 N          63.5266   88.6351   12.6449 N.am    1  UNL1       -0.2966
      4 H          64.1020   87.8765   12.3946 H       1  UNL1        0.1499
      5 C          61.5864   87.6264   11.2420 C.3     1  UNL1        0.1554
      6 C          62.3171   85.4349   12.4310 C.2     1  UNL1        0.4017
      7 O          63.7323   85.9303   12.4745 O.2     1  UNL1       -0.2264
      8 N          61.2442   86.2830   11.8148 N.am    1  UNL1       -0.2637
      9 H          60.3154   85.9578   11.7863 H       1  UNL1        0.1532
     10 O          61.9749   84.0915   13.0038 O.3     1  UNL1       -0.4419
     11 C          62.8729   82.8898   11.5040 C.3     1  UNL1        0.0437
     12 C          62.9941   82.9910   12.9957 C.3     1  UNL1        0.1378
     13 C          63.1153   83.0923   14.4873 C.3     1  UNL1        0.0437
     14 C          64.0134   81.8905   12.9875 C.3     1  UNL1        0.0437
     15 C          61.3969   87.8875    9.7772 C.3     1  UNL1        0.0553
     16 C          61.5771   86.7747    8.7875 C.ar    1  UNL1       -0.0161
     17 C          62.7869   85.8913    8.8643 C.ar    1  UNL1       -0.0042
     18 C          62.9670   84.7786    7.8746 C.ar    1  UNL1       -0.0003
     19 C          61.9373   84.5493    6.8082 C.ar    1  UNL1       -0.0001
     20 C          60.7275   85.4327    6.7315 C.ar    1  UNL1        0.0035
     21 C          60.5474   86.5454    7.7211 C.ar    1  UNL1        0.0675
     22 C          59.3376   87.4289    7.6444 C.3     1  UNL1        0.4183
     23 F          58.1278   88.3124    7.5677 F       1  UNL1       -0.1659
     24 F          60.1202   88.4315    6.8493 F       1  UNL1       -0.1659
     25 F          58.5549   86.4263    8.4395 F       1  UNL1       -0.1659
     26 C          64.0584   89.7174   13.5370 C.3     1  UNL1        0.1543
     27 C          64.5616   90.9995   12.9428 C.ar    1  UNL1        0.1417
     28 N          64.4876   91.3896   11.4964 N.ar    1  UNL1       -0.2276
     29 C          65.1074   92.7478   11.3503 C.ar    1  UNL1        0.1167
     30 C          65.3147   93.6335   10.1576 C.ar    1  UNL1        0.0238
     31 C          65.9789   94.9683   10.3211 C.ar    1  UNL1        0.0223
     32 C          66.4359   95.4176   11.6773 C.ar    1  UNL1        0.1006
     33 N          66.2287   94.5319   12.8700 N.ar    1  UNL1       -0.2252
     34 C          65.5644   93.1970   12.7065 C.ar    1  UNL1        0.1626
     35 N          65.2271   92.1165   13.6907 N.ar    1  UNL1       -0.2990
     36 C          65.5062   92.1476   15.1642 C.3     1  UNL1        0.0898
     37 C          65.2733   92.0831   16.6446 C.3     1  UNL1        0.0273
     38 C          64.1287   91.8833   15.6960 C.3     1  UNL1        0.0273
     39 C          66.9806   92.4226   15.1443 C.ar    1  UNL1       -0.0037
     40 C          67.8686   91.6830   14.1881 C.ar    1  UNL1       -0.0025
     41 C          69.3431   91.9580   14.1681 C.ar    1  UNL1       -0.0003
     42 C          69.9294   92.9728   15.1044 C.ar    1  UNL1       -0.0000
     43 C          69.0414   93.7125   16.0605 C.ar    1  UNL1       -0.0003
     44 C          67.5669   93.4374   16.0805 C.ar    1  UNL1       -0.0025
@<TRIPOS>BOND
     1    11    12    1
     2    12    13    1
     3    12    14    1
     4    12    10    1
     5    10     6    1
     6     6     7    2
     7     6     8   am
     8     8     5    1
     9     5    15    1
    10    15    16    1
    11    16    17   ar
    12    17    18   ar
    13    18    19   ar
    14    19    20   ar
    15    20    21   ar
    16    21    22    1
    17    22    23    1
    18    22    24    1
    19    22    25    1
    20     5     1    1
    21     1     2    2
    22     1     3   am
    23     3    26    1
    24    26    27    1
    25    27    28   ar
    26    28    29   ar
    27    29    30   ar
    28    30    31   ar
    29    31    32   ar
    30    32    33   ar
    31    33    34   ar
    32    34    35   ar
    33    35    36    1
    34    36    39    1
    35    39    40   ar
    36    40    41   ar
    37    41    42   ar
    38    42    43   ar
    39    43    44   ar
    40    36    37    1
    41    37    38    1
    42    21    16   ar
    43    35    27   ar
    44    38    36    1
    45    34    29   ar
    46    44    39   ar
    47     8     9    1
    48     3     4    1
