@<TRIPOS>MOLECULE
*****
 39 43 0 0 0
SMALL
GASTEIGER

@<TRIPOS>ATOM
      1 C          60.4026   92.2334    3.6911 C.3     1  UNL1        0.0603
      2 C          61.6610   91.8051    2.9960 C.3     1  UNL1        0.0290
      3 C          62.2504   92.6630    1.9159 C.3     1  UNL1        0.0926
      4 N          61.5814   93.9491    1.5309 N.pl3   1  UNL1       -0.2931
      5 C          60.3229   94.3774    2.2259 C.3     1  UNL1        0.0926
      6 C          59.7336   93.5195    3.3059 C.3     1  UNL1        0.0290
      7 C          62.1708   94.8070    0.4507 C.ar    1  UNL1        0.1361
      8 N          63.5368   95.4011    0.6264 N.ar    1  UNL1       -0.2089
      9 C          64.1262   96.2589   -0.4537 C.ar    1  UNL1        0.2012
     10 N          63.3495   96.5227   -1.7096 N.ar    1  UNL1       -0.2094
     11 C          61.9834   95.9286   -1.8853 C.ar    1  UNL1        0.1298
     12 N          61.2068   96.1924   -3.1412 N.pl3   1  UNL1       -0.3425
     13 C          61.3940   95.0707   -0.8052 C.ar    1  UNL1        0.0628
     14 H          61.5936   96.7555   -3.8501 H       1  UNL1        0.1437
     15 H          60.3102   95.8025   -3.2565 H       1  UNL1        0.1437
     16 C          60.0280   94.4766   -0.9809 C.ar    1  UNL1        0.0055
     17 C          58.8085   95.3070   -0.7101 C.ar    1  UNL1        0.0025
     18 C          57.4424   94.7129   -0.8858 C.ar    1  UNL1        0.0296
     19 C          57.2958   93.2885   -1.3324 C.ar    1  UNL1        0.1401
     20 F          55.9298   92.6944   -1.5081 F       1  UNL1       -0.2042
     21 C          58.5153   92.4581   -1.6032 C.ar    1  UNL1        0.0296
     22 C          59.8814   93.0522   -1.4275 C.ar    1  UNL1        0.0025
     23 C          57.2237   91.8766    4.3369 C.3     1  UNL1        0.1317
     24 N          58.3520   91.2115    5.0680 N.ar    1  UNL1       -0.3117
     25 C          58.2173   90.2657    6.2244 C.ar    1  UNL1        0.0962
     26 C          59.5952   89.8451    6.6422 C.ar    1  UNL1        0.0997
     27 N          60.5815   90.5310    5.7441 N.ar    1  UNL1       -0.2309
     28 C          59.8132   91.3755    4.7712 C.ar    1  UNL1        0.1200
     29 C          59.9282   88.9038    7.7617 C.ar    1  UNL1        0.0193
     30 C          59.6599   87.4356    7.6120 C.ar    1  UNL1        0.0038
     31 C          59.9930   86.4944    8.7315 C.ar    1  UNL1        0.0296
     32 C          60.5943   87.0214   10.0006 C.ar    1  UNL1        0.1440
     33 F          60.9274   86.0801   11.1201 F       1  UNL1       -0.2042
     34 C          60.8626   88.4896   10.1503 C.ar    1  UNL1        0.0988
     35 C          60.5296   89.4308    9.0308 C.ar    1  UNL1        0.0077
     36 C          61.4640   89.0166   11.4194 C.3     1  UNL1        0.4207
     37 F          62.0653   89.5435   12.6885 F       1  UNL1       -0.1658
     38 F          62.7704   88.3677   11.0698 F       1  UNL1       -0.1658
     39 F          60.1575   89.6654   11.7690 F       1  UNL1       -0.1658
@<TRIPOS>BOND
     1    23    24    1
     2    24    25   ar
     3    25    26   ar
     4    26    29    1
     5    29    30   ar
     6    30    31   ar
     7    31    32   ar
     8    32    33    1
     9    32    34   ar
    10    34    36    1
    11    36    37    1
    12    36    38    1
    13    36    39    1
    14    34    35   ar
    15    26    27   ar
    16    27    28   ar
    17    28     1    1
    18     1     2    1
    19     2     3    1
    20     3     4    1
    21     4     7    1
    22     7     8   ar
    23     8     9   ar
    24     9    10   ar
    25    10    11   ar
    26    11    12    1
    27    11    13   ar
    28    13    16    1
    29    16    17   ar
    30    17    18   ar
    31    18    19   ar
    32    19    20    1
    33    19    21   ar
    34    21    22   ar
    35     4     5    1
    36     5     6    1
    37    28    24   ar
    38     6     1    1
    39    35    29   ar
    40    13     7   ar
    41    22    16   ar
    42    12    14    1
    43    12    15    1
@<TRIPOS>MOLECULE
*****
 39 43 0 0 0
SMALL
GASTEIGER

@<TRIPOS>ATOM
      1 C          60.4716   92.0511    4.0039 C.3     1  UNL1        0.0603
      2 C          61.7930   91.7196    3.3762 C.3     1  UNL1        0.0290
      3 C          62.3568   92.6040    2.3038 C.3     1  UNL1        0.0926
      4 N          61.5992   93.8197    1.8591 N.pl3   1  UNL1       -0.2931
      5 C          60.2777   94.1513    2.4868 C.3     1  UNL1        0.0926
      6 C          59.7140   93.2669    3.5592 C.3     1  UNL1        0.0290
      7 C          62.1630   94.7041    0.7867 C.ar    1  UNL1        0.1361
      8 N          63.4907   95.3726    0.9870 N.ar    1  UNL1       -0.2089
      9 C          64.0545   96.2570   -0.0855 C.ar    1  UNL1        0.2012
     10 N          63.2905   96.4728   -1.3582 N.ar    1  UNL1       -0.2094
     11 C          61.9628   95.8043   -1.5585 C.ar    1  UNL1        0.1298
     12 N          61.1988   96.0201   -2.8312 N.pl3   1  UNL1       -0.3425
     13 C          61.3990   94.9199   -0.4861 C.ar    1  UNL1        0.0628
     14 H          61.5689   96.6005   -3.5350 H       1  UNL1        0.1437
     15 H          60.3274   95.5813   -2.9627 H       1  UNL1        0.1437
     16 C          60.0712   94.2514   -0.6863 C.ar    1  UNL1        0.0055
     17 C          60.0086   92.7834   -0.9884 C.ar    1  UNL1        0.0025
     18 C          58.6809   92.1149   -1.1886 C.ar    1  UNL1        0.0296
     19 C          57.4157   92.9143   -1.0869 C.ar    1  UNL1        0.1401
     20 F          56.0880   92.2458   -1.2872 F       1  UNL1       -0.2042
     21 C          57.4783   94.3823   -0.7849 C.ar    1  UNL1        0.0296
     22 C          58.8060   95.0508   -0.5846 C.ar    1  UNL1        0.0025
     23 C          57.3056   91.6229    4.6693 C.3     1  UNL1        0.1317
     24 N          58.4525   90.9699    5.3822 N.ar    1  UNL1       -0.3117
     25 C          58.3456   90.0055    6.5260 C.ar    1  UNL1        0.0962
     26 C          59.7348   89.6063    6.9271 C.ar    1  UNL1        0.0997
     27 N          60.7003   90.3240    6.0312 N.ar    1  UNL1       -0.2309
     28 C          59.9078   91.1667    5.0763 C.ar    1  UNL1        0.1200
     29 C          60.0952   88.6561    8.0306 C.ar    1  UNL1        0.0193
     30 C          59.5516   88.8702    9.4121 C.ar    1  UNL1        0.0038
     31 C          59.9120   87.9201   10.5154 C.ar    1  UNL1        0.0296
     32 C          60.8160   86.7559   10.2372 C.ar    1  UNL1        0.1440
     33 F          61.1764   85.8058   11.3406 F       1  UNL1       -0.2042
     34 C          61.3596   86.5418    8.8557 C.ar    1  UNL1        0.0988
     35 C          60.9992   87.4919    7.7524 C.ar    1  UNL1        0.0077
     36 C          62.2636   85.3776    8.5775 C.3     1  UNL1        0.4207
     37 F          63.1676   84.2134    8.2993 F       1  UNL1       -0.1658
     38 F          61.5414   85.1251    7.2873 F       1  UNL1       -0.1658
     39 F          62.9858   85.6301    9.8677 F       1  UNL1       -0.1658
@<TRIPOS>BOND
     1    23    24    1
     2    24    25   ar
     3    25    26   ar
     4    26    29    1
     5    29    30   ar
     6    30    31   ar
     7    31    32   ar
     8    32    33    1
     9    32    34   ar
    10    34    36    1
    11    36    37    1
    12    36    38    1
    13    36    39    1
    14    34    35   ar
    15    26    27   ar
    16    27    28   ar
    17    28     1    1
    18     1     2    1
    19     2     3    1
    20     3     4    1
    21     4     7    1
    22     7     8   ar
    23     8     9   ar
    24     9    10   ar
    25    10    11   ar
    26    11    12    1
    27    11    13   ar
    28    13    16    1
    29    16    17   ar
    30    17    18   ar
    31    18    19   ar
    32    19    20    1
    33    19    21   ar
    34    21    22   ar
    35     4     5    1
    36     5     6    1
    37    28    24   ar
    38     6     1    1
    39    35    29   ar
    40    13     7   ar
    41    22    16   ar
    42    12    14    1
    43    12    15    1
@<TRIPOS>MOLECULE
*****
 39 43 0 0 0
SMALL
GASTEIGER

@<TRIPOS>ATOM
      1 C          64.2820   88.6919   13.7741 C.3     1  UNL1        0.0603
      2 C          63.4695   88.0424   12.6933 C.3     1  UNL1        0.0290
      3 C          63.1449   86.5802   12.7751 C.3     1  UNL1        0.0926
      4 N          63.6328   85.7676   13.9377 N.pl3   1  UNL1       -0.2931
      5 C          64.4453   86.4171   15.0185 C.3     1  UNL1        0.0926
      6 C          64.7699   87.8792   14.9366 C.3     1  UNL1        0.0290
      7 C          63.3081   84.3055   14.0195 C.ar    1  UNL1        0.1361
      8 N          63.4668   83.5735   15.3191 N.ar    1  UNL1       -0.2089
      9 C          63.1422   82.1113   15.4009 C.ar    1  UNL1        0.2012
     10 N          62.6588   81.3811   14.1830 N.ar    1  UNL1       -0.2094
     11 C          62.5001   82.1130   12.8834 C.ar    1  UNL1        0.1298
     12 N          62.0167   81.3828   11.6656 N.pl3   1  UNL1       -0.3425
     13 C          62.8247   83.5752   12.8016 C.ar    1  UNL1        0.0628
     14 H          61.8036   80.4231   11.7193 H       1  UNL1        0.1437
     15 H          61.9125   81.8632   10.8126 H       1  UNL1        0.1437
     16 C          62.6660   84.3072   11.5019 C.ar    1  UNL1        0.0055
     17 C          61.5438   85.2866   11.3250 C.ar    1  UNL1        0.0025
     18 C          61.3851   86.0186   10.0254 C.ar    1  UNL1        0.0296
     19 C          62.3485   85.7710    8.9027 C.ar    1  UNL1        0.1401
     20 F          62.1898   86.5030    7.6031 F       1  UNL1       -0.2042
     21 C          63.4707   84.7916    9.0796 C.ar    1  UNL1        0.0296
     22 C          63.6295   84.0596   10.3792 C.ar    1  UNL1        0.0025
     23 C          63.7674   90.9051   16.1165 C.3     1  UNL1        0.1317
     24 N          64.3701   91.1714   14.7690 N.ar    1  UNL1       -0.3117
     25 C          64.8421   92.5016   14.2615 C.ar    1  UNL1        0.0962
     26 C          65.3704   92.3066   12.8712 C.ar    1  UNL1        0.0997
     27 N          65.2249   90.8557   12.5194 N.ar    1  UNL1       -0.2309
     28 C          64.6067   90.1541   13.6923 C.ar    1  UNL1        0.1200
     29 C          65.9436   93.3749   11.9878 C.ar    1  UNL1        0.0193
     30 C          65.8169   94.8179   12.3772 C.ar    1  UNL1        0.0038
     31 C          66.3900   95.8861   11.4938 C.ar    1  UNL1        0.0296
     32 C          67.0899   95.5113   10.2211 C.ar    1  UNL1        0.1440
     33 F          67.6630   96.5796    9.3377 F       1  UNL1       -0.2042
     34 C          67.2166   94.0683    9.8318 C.ar    1  UNL1        0.0988
     35 C          66.6434   93.0001   10.7152 C.ar    1  UNL1        0.0077
     36 C          67.9164   93.6935    8.5591 C.3     1  UNL1        0.4207
     37 F          68.6163   93.3187    7.2864 F       1  UNL1       -0.1658
     38 F          68.8323   92.7889    9.3292 F       1  UNL1       -0.1658
     39 F          67.0005   94.5980    7.7891 F       1  UNL1       -0.1658
@<TRIPOS>BOND
     1    23    24    1
     2    24    25   ar
     3    25    26   ar
     4    26    29    1
     5    29    30   ar
     6    30    31   ar
     7    31    32   ar
     8    32    33    1
     9    32    34   ar
    10    34    36    1
    11    36    37    1
    12    36    38    1
    13    36    39    1
    14    34    35   ar
    15    26    27   ar
    16    27    28   ar
    17    28     1    1
    18     1     2    1
    19     2     3    1
    20     3     4    1
    21     4     7    1
    22     7     8   ar
    23     8     9   ar
    24     9    10   ar
    25    10    11   ar
    26    11    12    1
    27    11    13   ar
    28    13    16    1
    29    16    17   ar
    30    17    18   ar
    31    18    19   ar
    32    19    20    1
    33    19    21   ar
    34    21    22   ar
    35     4     5    1
    36     5     6    1
    37    28    24   ar
    38     6     1    1
    39    35    29   ar
    40    13     7   ar
    41    22    16   ar
    42    12    14    1
    43    12    15    1
@<TRIPOS>MOLECULE
*****
 39 43 0 0 0
SMALL
GASTEIGER

@<TRIPOS>ATOM
      1 C          60.4406   91.9163    3.2014 C.3     1  UNL1        0.0603
      2 C          61.8301   91.5664    2.7580 C.3     1  UNL1        0.0290
      3 C          62.4026   92.1923    1.5207 C.3     1  UNL1        0.0926
      4 N          61.5854   93.1680    0.7270 N.pl3   1  UNL1       -0.2931
      5 C          60.1957   93.5180    1.1705 C.3     1  UNL1        0.0926
      6 C          59.6234   92.8921    2.4076 C.3     1  UNL1        0.0290
      7 C          62.1578   93.7939   -0.5102 C.ar    1  UNL1        0.1361
      8 N          61.6536   93.3815   -1.8614 N.ar    1  UNL1       -0.2089
      9 C          62.2260   94.0074   -3.0986 C.ar    1  UNL1        0.2012
     10 N          63.3027   95.0456   -2.9845 N.ar    1  UNL1       -0.2094
     11 C          63.8069   95.4580   -1.6334 C.ar    1  UNL1        0.1298
     12 N          64.8835   96.4962   -1.5194 N.pl3   1  UNL1       -0.3425
     13 C          63.2345   94.8321   -0.3961 C.ar    1  UNL1        0.0628
     14 H          65.2592   96.9069   -2.3314 H       1  UNL1        0.1437
     15 H          65.2145   96.7668   -0.6326 H       1  UNL1        0.1437
     16 C          63.7387   95.2445    0.9550 C.ar    1  UNL1        0.0055
     17 C          64.8283   94.4577    1.6211 C.ar    1  UNL1        0.0025
     18 C          65.3325   94.8700    2.9723 C.ar    1  UNL1        0.0296
     19 C          64.7471   96.0692    3.6574 C.ar    1  UNL1        0.1401
     20 F          65.2513   96.4815    5.0086 F       1  UNL1       -0.2042
     21 C          63.6575   96.8560    2.9913 C.ar    1  UNL1        0.0296
     22 C          63.1533   96.4436    1.6402 C.ar    1  UNL1        0.0025
     23 C          57.3743   92.2380    4.2711 C.3     1  UNL1        0.1317
     24 N          58.4587   91.4384    4.9303 N.ar    1  UNL1       -0.3117
     25 C          58.3242   90.6461    6.1969 C.ar    1  UNL1        0.0962
     26 C          59.6504   90.0087    6.4880 C.ar    1  UNL1        0.0997
     27 N          60.6046   90.4069    5.4013 N.ar    1  UNL1       -0.2309
     28 C          59.8682   91.2905    4.4386 C.ar    1  UNL1        0.1200
     29 C          59.9669   89.1276    7.6601 C.ar    1  UNL1        0.0193
     30 C          59.7216   87.6503    7.5757 C.ar    1  UNL1        0.0038
     31 C          60.0380   86.7693    8.7477 C.ar    1  UNL1        0.0296
     32 C          60.5997   87.3658   10.0042 C.ar    1  UNL1        0.1440
     33 F          60.9161   86.4847   11.1763 F       1  UNL1       -0.2042
     34 C          60.8450   88.8431   10.0886 C.ar    1  UNL1        0.0988
     35 C          60.5286   89.7241    8.9166 C.ar    1  UNL1        0.0077
     36 C          61.4067   89.4395   11.3451 C.3     1  UNL1        0.4207
     37 F          61.9684   90.0360   12.6016 F       1  UNL1       -0.1658
     38 F          62.6860   88.6862   11.1309 F       1  UNL1       -0.1658
     39 F          60.1274   90.1929   11.5594 F       1  UNL1       -0.1658
@<TRIPOS>BOND
     1    23    24    1
     2    24    25   ar
     3    25    26   ar
     4    26    29    1
     5    29    30   ar
     6    30    31   ar
     7    31    32   ar
     8    32    33    1
     9    32    34   ar
    10    34    36    1
    11    36    37    1
    12    36    38    1
    13    36    39    1
    14    34    35   ar
    15    26    27   ar
    16    27    28   ar
    17    28     1    1
    18     1     2    1
    19     2     3    1
    20     3     4    1
    21     4     7    1
    22     7     8   ar
    23     8     9   ar
    24     9    10   ar
    25    10    11   ar
    26    11    12    1
    27    11    13   ar
    28    13    16    1
    29    16    17   ar
    30    17    18   ar
    31    18    19   ar
    32    19    20    1
    33    19    21   ar
    34    21    22   ar
    35     4     5    1
    36     5     6    1
    37    28    24   ar
    38     6     1    1
    39    35    29   ar
    40    13     7   ar
    41    22    16   ar
    42    12    14    1
    43    12    15    1
@<TRIPOS>MOLECULE
*****
 39 43 0 0 0
SMALL
GASTEIGER

@<TRIPOS>ATOM
      1 C          63.6624   86.1724   14.8482 C.3     1  UNL1        0.0603
      2 C          64.7711   85.4126   14.1824 C.3     1  UNL1        0.0290
      3 C          64.5571   83.9890   13.7610 C.3     1  UNL1        0.0926
      4 N          63.2344   83.3253   14.0054 N.pl3   1  UNL1       -0.2931
      5 C          62.1256   84.0851   14.6712 C.3     1  UNL1        0.0926
      6 C          62.3396   85.5086   15.0926 C.3     1  UNL1        0.0290
      7 C          63.0204   81.9017   13.5839 C.ar    1  UNL1        0.1361
      8 N          62.8899   80.8245   14.6195 N.ar    1  UNL1       -0.2089
      9 C          62.6759   79.4009   14.1981 C.ar    1  UNL1        0.2012
     10 N          62.5924   79.0545   12.7409 N.ar    1  UNL1       -0.2094
     11 C          62.7230   80.1318   11.7053 C.ar    1  UNL1        0.1298
     12 N          62.6395   79.7854   10.2482 N.pl3   1  UNL1       -0.3425
     13 C          62.9370   81.5554   12.1268 C.ar    1  UNL1        0.0628
     14 H          62.4990   78.8510    9.9717 H       1  UNL1        0.1437
     15 H          62.7251   80.4924    9.5685 H       1  UNL1        0.1437
     16 C          63.0675   82.6326   11.0911 C.ar    1  UNL1        0.0055
     17 C          62.0897   83.7698   11.0646 C.ar    1  UNL1        0.0025
     18 C          62.2202   84.8470   10.0290 C.ar    1  UNL1        0.0296
     19 C          63.3285   84.7870    9.0199 C.ar    1  UNL1        0.1401
     20 F          63.4590   85.8643    7.9843 F       1  UNL1       -0.2042
     21 C          64.3063   83.6498    9.0465 C.ar    1  UNL1        0.0296
     22 C          64.1758   82.5726   10.0821 C.ar    1  UNL1        0.0025
     23 C          62.5542   87.5477   17.5924 C.3     1  UNL1        0.1317
     24 N          63.3670   88.2282   16.5311 N.ar    1  UNL1       -0.3117
     25 C          63.8131   89.6602   16.5447 C.ar    1  UNL1        0.0962
     26 C          64.5982   89.9131   15.2918 C.ar    1  UNL1        0.0997
     27 N          64.6373   88.6374   14.5038 N.ar    1  UNL1       -0.2309
     28 C          63.8764   87.5960   15.2697 C.ar    1  UNL1        0.1200
     29 C          65.2328   91.2135   14.8963 C.ar    1  UNL1        0.0193
     30 C          65.6319   92.2042   15.9495 C.ar    1  UNL1        0.0038
     31 C          66.2665   93.5045   15.5540 C.ar    1  UNL1        0.0296
     32 C          66.5019   93.8142   14.1053 C.ar    1  UNL1        0.1440
     33 F          67.1365   95.1146   13.7099 F       1  UNL1       -0.2042
     34 C          66.1027   92.8235   13.0522 C.ar    1  UNL1        0.0988
     35 C          65.4682   91.5232   13.4476 C.ar    1  UNL1        0.0077
     36 C          66.3381   93.1332   11.6035 C.3     1  UNL1        0.4207
     37 F          66.5735   93.4429   10.1548 F       1  UNL1       -0.1658
     38 F          65.3212   94.2337   11.6735 F       1  UNL1       -0.1658
     39 F          67.3550   92.0328   11.5335 F       1  UNL1       -0.1658
@<TRIPOS>BOND
     1    23    24    1
     2    24    25   ar
     3    25    26   ar
     4    26    29    1
     5    29    30   ar
     6    30    31   ar
     7    31    32   ar
     8    32    33    1
     9    32    34   ar
    10    34    36    1
    11    36    37    1
    12    36    38    1
    13    36    39    1
    14    34    35   ar
    15    26    27   ar
    16    27    28   ar
    17    28     1    1
    18     1     2    1
    19     2     3    1
    20     3     4    1
    21     4     7    1
    22     7     8   ar
    23     8     9   ar
    24     9    10   ar
    25    10    11   ar
    26    11    12    1
    27    11    13   ar
    28    13    16    1
    29    16    17   ar
    30    17    18   ar
    31    18    19   ar
    32    19    20    1
    33    19    21   ar
    34    21    22   ar
    35     4     5    1
    36     5     6    1
    37    28    24   ar
    38     6     1    1
    39    35    29   ar
    40    13     7   ar
    41    22    16   ar
    42    12    14    1
    43    12    15    1
