@<TRIPOS>MOLECULE
*****
 32 35 0 0 0
SMALL
GASTEIGER

@<TRIPOS>ATOM
      1 O          64.5375   89.4583   14.9148 O.2     1  UNL1       -0.2742
      2 C          63.8504   89.1070   13.6284 C.2     1  UNL1        0.2336
      3 N          63.6937   87.6694   13.2301 N.am    1  UNL1       -0.2755
      4 C          63.0066   87.3182   11.9437 C.3     1  UNL1        0.1149
      5 C          62.8499   85.8806   11.5453 C.3     1  UNL1        0.1137
      6 N          63.3802   84.7942   12.4333 N.pl3   1  UNL1       -0.2897
      7 C          64.0672   85.1454   13.7196 C.3     1  UNL1        0.1137
      8 C          64.2239   86.5830   14.1180 C.3     1  UNL1        0.1149
      9 C          63.2234   83.3566   12.0350 C.ar    1  UNL1        0.1318
     10 C          63.6310   82.9100   10.6622 C.ar    1  UNL1        0.0343
     11 C          63.4742   81.4724   10.2638 C.ar    1  UNL1        0.0083
     12 C          62.9100   80.4814   11.2382 C.ar    1  UNL1        0.0906
     13 C          62.5024   80.9279   12.6110 C.ar    1  UNL1        0.1041
     14 N          62.6592   82.3656   13.0094 N.ar    1  UNL1       -0.2292
     15 C          62.7532   79.0438   10.8399 C.3     1  UNL1        0.4200
     16 F          62.5965   77.6061   10.4414 F       1  UNL1       -0.1658
     17 F          62.9822   79.4164    9.4051 F       1  UNL1       -0.1658
     18 F          62.5242   78.6712   12.2746 F       1  UNL1       -0.1658
     19 C          63.3201   90.1935   12.7404 C.3     1  UNL1        0.1241
     20 C          64.2186   91.3141   12.3081 C.ar    1  UNL1       -0.0096
     21 C          65.0874   92.0095   13.3139 C.ar    1  UNL1       -0.0026
     22 C          65.9858   93.1302   12.8815 C.ar    1  UNL1        0.0111
     23 C          66.0155   93.5554   11.4434 C.ar    1  UNL1        0.0577
     24 CL         66.9140   94.6761   11.0110 Cl      1  UNL1       -0.0822
     25 C          65.1467   92.8600   10.4376 C.ar    1  UNL1        0.0111
     26 C          64.2483   91.7394   10.8699 C.ar    1  UNL1       -0.0026
     27 C          61.8914   90.1592   12.2848 C.ar    1  UNL1        0.0286
     28 C          61.5299   90.6460   10.9129 C.ar    1  UNL1        0.0987
     29 N          60.1011   90.6118   10.4573 N.ar    1  UNL1       -0.2227
     30 C          59.0340   90.0908   11.3736 C.ar    1  UNL1        0.1989
     31 N          59.3955   89.6040   12.7456 N.ar    1  UNL1       -0.2227
     32 C          60.8242   89.6382   13.2012 C.ar    1  UNL1        0.0987
@<TRIPOS>BOND
     1     1     2    2
     2     2    19    1
     3    19    20    1
     4    20    21   ar
     5    21    22   ar
     6    22    23   ar
     7    23    24    1
     8    23    25   ar
     9    25    26   ar
    10    19    27    1
    11    27    28   ar
    12    28    29   ar
    13    29    30   ar
    14    30    31   ar
    15    31    32   ar
    16     2     3   am
    17     3     4    1
    18     4     5    1
    19     5     6    1
    20     6     9    1
    21     9    10   ar
    22    10    11   ar
    23    11    12   ar
    24    12    15    1
    25    15    16    1
    26    15    17    1
    27    15    18    1
    28    12    13   ar
    29    13    14   ar
    30     6     7    1
    31     7     8    1
    32    26    20   ar
    33    32    27   ar
    34     8     3    1
    35    14     9   ar
@<TRIPOS>MOLECULE
*****
 32 35 0 0 0
SMALL
GASTEIGER

@<TRIPOS>ATOM
      1 O          62.4430   91.3694   10.2833 O.2     1  UNL1       -0.2742
      2 C          63.3046   90.7483   11.3426 C.2     1  UNL1        0.2336
      3 N          63.1436   89.2968   11.6846 N.am    1  UNL1       -0.2755
      4 C          64.0052   88.6758   12.7439 C.3     1  UNL1        0.1149
      5 C          63.8441   87.2242   13.0860 C.3     1  UNL1        0.1137
      6 N          62.8215   86.3937   12.3688 N.pl3   1  UNL1       -0.2897
      7 C          61.9599   87.0146   11.3096 C.3     1  UNL1        0.1137
      8 C          62.1209   88.4662   10.9675 C.3     1  UNL1        0.1149
      9 C          62.6605   84.9421   12.7109 C.ar    1  UNL1        0.1318
     10 C          62.7333   83.9043   11.6302 C.ar    1  UNL1        0.0343
     11 C          62.5723   82.4528   11.9723 C.ar    1  UNL1        0.0083
     12 C          62.3384   82.0389   13.3950 C.ar    1  UNL1        0.0906
     13 C          62.2656   83.0766   14.4756 C.ar    1  UNL1        0.1041
     14 N          62.4266   84.5283   14.1336 N.ar    1  UNL1       -0.2292
     15 C          62.1774   80.5874   13.7370 C.3     1  UNL1        0.4200
     16 F          62.0164   79.1358   14.0791 F       1  UNL1       -0.1658
     17 F          63.6550   80.3856   13.5764 F       1  UNL1       -0.1658
     18 F          60.6998   80.7892   13.8976 F       1  UNL1       -0.1658
     19 C          64.3272   91.5789   12.0598 C.3     1  UNL1        0.1241
     20 C          65.3135   92.3947   11.2774 C.ar    1  UNL1       -0.0096
     21 C          66.6216   91.7914   10.8594 C.ar    1  UNL1       -0.0026
     22 C          67.6077   92.6071   10.0771 C.ar    1  UNL1        0.0111
     23 C          67.2858   94.0261    9.7128 C.ar    1  UNL1        0.0577
     24 CL         68.2720   94.8419    8.9305 Cl      1  UNL1       -0.0822
     25 C          65.9776   94.6294   10.1309 C.ar    1  UNL1        0.0111
     26 C          64.9915   93.8137   10.9132 C.ar    1  UNL1       -0.0026
     27 C          64.3636   91.5938   13.5592 C.ar    1  UNL1        0.0286
     28 C          65.4765   92.3000   14.2755 C.ar    1  UNL1        0.0987
     29 N          65.5128   92.3148   15.7750 N.ar    1  UNL1       -0.2227
     30 C          64.4364   91.6236   16.5582 C.ar    1  UNL1        0.1989
     31 N          63.3236   90.9175   15.8420 N.ar    1  UNL1       -0.2227
     32 C          63.2872   90.9026   14.3425 C.ar    1  UNL1        0.0987
@<TRIPOS>BOND
     1     1     2    2
     2     2    19    1
     3    19    20    1
     4    20    21   ar
     5    21    22   ar
     6    22    23   ar
     7    23    24    1
     8    23    25   ar
     9    25    26   ar
    10    19    27    1
    11    27    28   ar
    12    28    29   ar
    13    29    30   ar
    14    30    31   ar
    15    31    32   ar
    16     2     3   am
    17     3     4    1
    18     4     5    1
    19     5     6    1
    20     6     9    1
    21     9    10   ar
    22    10    11   ar
    23    11    12   ar
    24    12    15    1
    25    15    16    1
    26    15    17    1
    27    15    18    1
    28    12    13   ar
    29    13    14   ar
    30     6     7    1
    31     7     8    1
    32    26    20   ar
    33    32    27   ar
    34     8     3    1
    35    14     9   ar
@<TRIPOS>MOLECULE
*****
 32 35 0 0 0
SMALL
GASTEIGER

@<TRIPOS>ATOM
      1 O          59.3102   88.2700   12.3313 O.2     1  UNL1       -0.2742
      2 C          60.6477   88.2889   11.6526 C.2     1  UNL1        0.2336
      3 N          61.7905   89.0409   12.2678 N.am    1  UNL1       -0.2755
      4 C          63.1280   89.0598   11.5891 C.3     1  UNL1        0.1149
      5 C          64.2708   89.8117   12.2044 C.3     1  UNL1        0.1137
      6 N          64.0761   90.5448   13.4984 N.pl3   1  UNL1       -0.2897
      7 C          62.7386   90.5259   14.1772 C.3     1  UNL1        0.1137
      8 C          61.5958   89.7740   13.5619 C.3     1  UNL1        0.1149
      9 C          65.2188   91.2968   14.1137 C.ar    1  UNL1        0.1318
     10 C          66.4846   91.5053   13.3364 C.ar    1  UNL1        0.0343
     11 C          67.6274   92.2572   13.9517 C.ar    1  UNL1        0.0083
     12 C          67.5044   92.8007   15.3443 C.ar    1  UNL1        0.0906
     13 C          66.2386   92.5922   16.1217 C.ar    1  UNL1        0.1041
     14 N          65.0958   91.8402   15.5064 N.ar    1  UNL1       -0.2292
     15 C          68.6471   93.5527   15.9596 C.3     1  UNL1        0.4200
     16 F          69.7899   94.3047   16.5749 F       1  UNL1       -0.1658
     17 F          68.1452   94.8229   15.3396 F       1  UNL1       -0.1658
     18 F          69.1491   92.2824   16.5796 F       1  UNL1       -0.1658
     19 C          60.8424   87.5558   10.3585 C.3     1  UNL1        0.1241
     20 C          61.7234   86.3427   10.3089 C.ar    1  UNL1       -0.0096
     21 C          62.4090   85.9655    9.0292 C.ar    1  UNL1       -0.0026
     22 C          63.2899   84.7524    8.9797 C.ar    1  UNL1        0.0111
     23 C          63.4851   83.9166   10.2098 C.ar    1  UNL1        0.0577
     24 CL         64.3661   82.7035   10.1603 Cl      1  UNL1       -0.0822
     25 C          62.7995   84.2938   11.4895 C.ar    1  UNL1        0.0111
     26 C          61.9186   85.5069   11.5390 C.ar    1  UNL1       -0.0026
     27 C          60.1562   88.0358    9.1140 C.ar    1  UNL1        0.0286
     28 C          59.2010   87.1346    8.3891 C.ar    1  UNL1        0.0987
     29 N          58.5148   87.6146    7.1446 N.ar    1  UNL1       -0.2227
     30 C          58.7839   88.9957    6.6250 C.ar    1  UNL1        0.1989
     31 N          59.7391   89.8969    7.3498 N.ar    1  UNL1       -0.2227
     32 C          60.4253   89.4170    8.5943 C.ar    1  UNL1        0.0987
@<TRIPOS>BOND
     1     1     2    2
     2     2    19    1
     3    19    20    1
     4    20    21   ar
     5    21    22   ar
     6    22    23   ar
     7    23    24    1
     8    23    25   ar
     9    25    26   ar
    10    19    27    1
    11    27    28   ar
    12    28    29   ar
    13    29    30   ar
    14    30    31   ar
    15    31    32   ar
    16     2     3   am
    17     3     4    1
    18     4     5    1
    19     5     6    1
    20     6     9    1
    21     9    10   ar
    22    10    11   ar
    23    11    12   ar
    24    12    15    1
    25    15    16    1
    26    15    17    1
    27    15    18    1
    28    12    13   ar
    29    13    14   ar
    30     6     7    1
    31     7     8    1
    32    26    20   ar
    33    32    27   ar
    34     8     3    1
    35    14     9   ar
@<TRIPOS>MOLECULE
*****
 32 35 0 0 0
SMALL
GASTEIGER

@<TRIPOS>ATOM
      1 O          63.6299   89.1300   16.8010 O.2     1  UNL1       -0.2742
      2 C          63.8056   88.9409   15.3233 C.2     1  UNL1        0.2336
      3 N          63.6523   87.5770   14.7182 N.am    1  UNL1       -0.2755
      4 C          63.8281   87.3879   13.2405 C.3     1  UNL1        0.1149
      5 C          63.6748   86.0240   12.6355 C.3     1  UNL1        0.1137
      6 N          63.3457   84.8491   13.5080 N.pl3   1  UNL1       -0.2897
      7 C          63.1700   85.0381   14.9856 C.3     1  UNL1        0.1137
      8 C          63.3233   86.4021   15.5907 C.3     1  UNL1        0.1149
      9 C          63.1924   83.4852   12.9029 C.ar    1  UNL1        0.1318
     10 C          63.5921   83.2481   11.4767 C.ar    1  UNL1        0.0343
     11 C          63.4388   81.8842   10.8716 C.ar    1  UNL1        0.0083
     12 C          62.8858   80.7573   11.6927 C.ar    1  UNL1        0.0906
     13 C          62.4861   80.9942   13.1189 C.ar    1  UNL1        0.1041
     14 N          62.6394   82.3582   13.7240 N.ar    1  UNL1       -0.2292
     15 C          62.7325   79.3933   11.0876 C.3     1  UNL1        0.4200
     16 F          62.5792   78.0294   10.4825 F       1  UNL1       -0.1658
     17 F          62.9926   79.9678    9.7267 F       1  UNL1       -0.1658
     18 F          62.4724   78.8188   12.4486 F       1  UNL1       -0.1658
     19 C          64.1347   90.1158   14.4508 C.3     1  UNL1        0.1241
     20 C          65.2430   91.0499   14.8372 C.ar    1  UNL1       -0.0096
     21 C          66.5330   91.0404   14.0719 C.ar    1  UNL1       -0.0026
     22 C          67.6411   91.9745   14.4583 C.ar    1  UNL1        0.0111
     23 C          67.4593   92.9181   15.6101 C.ar    1  UNL1        0.0577
     24 CL         68.5676   93.8522   15.9965 Cl      1  UNL1       -0.0822
     25 C          66.1693   92.9276   16.3754 C.ar    1  UNL1        0.0111
     26 C          65.0612   91.9935   15.9890 C.ar    1  UNL1       -0.0026
     27 C          63.3555   90.3567   13.1919 C.ar    1  UNL1        0.0286
     28 C          61.9417   89.8684   13.0799 C.ar    1  UNL1        0.0987
     29 N          61.1625   90.1093   11.8209 N.ar    1  UNL1       -0.2227
     30 C          61.7972   90.8384   10.6740 C.ar    1  UNL1        0.1989
     31 N          63.2111   91.3266   10.7859 N.ar    1  UNL1       -0.2227
     32 C          63.9903   91.0858   12.0448 C.ar    1  UNL1        0.0987
@<TRIPOS>BOND
     1     1     2    2
     2     2    19    1
     3    19    20    1
     4    20    21   ar
     5    21    22   ar
     6    22    23   ar
     7    23    24    1
     8    23    25   ar
     9    25    26   ar
    10    19    27    1
    11    27    28   ar
    12    28    29   ar
    13    29    30   ar
    14    30    31   ar
    15    31    32   ar
    16     2     3   am
    17     3     4    1
    18     4     5    1
    19     5     6    1
    20     6     9    1
    21     9    10   ar
    22    10    11   ar
    23    11    12   ar
    24    12    15    1
    25    15    16    1
    26    15    17    1
    27    15    18    1
    28    12    13   ar
    29    13    14   ar
    30     6     7    1
    31     7     8    1
    32    26    20   ar
    33    32    27   ar
    34     8     3    1
    35    14     9   ar
@<TRIPOS>MOLECULE
*****
 32 35 0 0 0
SMALL
GASTEIGER

@<TRIPOS>ATOM
      1 O          64.2708   89.2849   15.7590 O.2     1  UNL1       -0.2742
      2 C          63.9490   89.0180   14.3184 C.2     1  UNL1        0.2336
      3 N          63.7725   87.6080   13.8381 N.am    1  UNL1       -0.2755
      4 C          63.4507   87.3410   12.3975 C.3     1  UNL1        0.1149
      5 C          63.2742   85.9310   11.9172 C.3     1  UNL1        0.1137
      6 N          63.4195   84.7879   12.8775 N.pl3   1  UNL1       -0.2897
      7 C          63.7412   85.0548   14.3180 C.3     1  UNL1        0.1137
      8 C          63.9178   86.4648   14.7984 C.3     1  UNL1        0.1149
      9 C          63.2429   83.3779   12.3972 C.ar    1  UNL1        0.1318
     10 C          63.6025   83.0154   10.9867 C.ar    1  UNL1        0.0343
     11 C          63.4260   81.6054   10.5065 C.ar    1  UNL1        0.0083
     12 C          62.8899   80.5578   11.4366 C.ar    1  UNL1        0.0906
     13 C          62.5304   80.9202   12.8470 C.ar    1  UNL1        0.1041
     14 N          62.7069   82.3303   13.3274 N.ar    1  UNL1       -0.2292
     15 C          62.7134   79.1478   10.9564 C.3     1  UNL1        0.4200
     16 F          62.5369   77.7378   10.4760 F       1  UNL1       -0.1658
     17 F          62.9404   79.6004    9.5444 F       1  UNL1       -0.1658
     18 F          62.4865   78.6953   12.3683 F       1  UNL1       -0.1658
     19 C          63.8038   90.1611   13.3581 C.3     1  UNL1        0.1241
     20 C          62.7781   90.0970   12.2653 C.ar    1  UNL1       -0.0096
     21 C          61.3242   89.9610   12.6084 C.ar    1  UNL1       -0.0026
     22 C          60.2987   89.8969   11.5157 C.ar    1  UNL1        0.0111
     23 C          60.7270   89.9687   10.0799 C.ar    1  UNL1        0.0577
     24 CL         59.7013   89.9046    8.9872 Cl      1  UNL1       -0.0822
     25 C          62.1809   90.1047    9.7369 C.ar    1  UNL1        0.0111
     26 C          63.2064   90.1688   10.8296 C.ar    1  UNL1       -0.0026
     27 C          64.6841   91.3683   13.4905 C.ar    1  UNL1        0.0286
     28 C          65.2223   91.7603   14.8346 C.ar    1  UNL1        0.0987
     29 N          66.1027   92.9676   14.9670 N.ar    1  UNL1       -0.2227
     30 C          66.4448   93.7828   13.7553 C.ar    1  UNL1        0.1989
     31 N          65.9066   93.3909   12.4112 N.ar    1  UNL1       -0.2227
     32 C          65.0263   92.1836   12.2787 C.ar    1  UNL1        0.0987
@<TRIPOS>BOND
     1     1     2    2
     2     2    19    1
     3    19    20    1
     4    20    21   ar
     5    21    22   ar
     6    22    23   ar
     7    23    24    1
     8    23    25   ar
     9    25    26   ar
    10    19    27    1
    11    27    28   ar
    12    28    29   ar
    13    29    30   ar
    14    30    31   ar
    15    31    32   ar
    16     2     3   am
    17     3     4    1
    18     4     5    1
    19     5     6    1
    20     6     9    1
    21     9    10   ar
    22    10    11   ar
    23    11    12   ar
    24    12    15    1
    25    15    16    1
    26    15    17    1
    27    15    18    1
    28    12    13   ar
    29    13    14   ar
    30     6     7    1
    31     7     8    1
    32    26    20   ar
    33    32    27   ar
    34     8     3    1
    35    14     9   ar
@<TRIPOS>MOLECULE
*****
 32 35 0 0 0
SMALL
GASTEIGER

@<TRIPOS>ATOM
      1 O          63.8137   90.8526   16.9647 O.2     1  UNL1       -0.2742
      2 C          64.2344   90.2415   15.6610 C.2     1  UNL1        0.2336
      3 N          63.9853   88.7855   15.4001 N.am    1  UNL1       -0.2755
      4 C          64.4060   88.1745   14.0963 C.3     1  UNL1        0.1149
      5 C          64.1569   86.7185   13.8354 C.3     1  UNL1        0.1137
      6 N          63.4871   85.8736   14.8782 N.pl3   1  UNL1       -0.2897
      7 C          63.0664   86.4846   16.1819 C.3     1  UNL1        0.1137
      8 C          63.3155   87.9406   16.4429 C.3     1  UNL1        0.1149
      9 C          63.2380   84.4176   14.6174 C.ar    1  UNL1        0.1318
     10 C          64.2955   83.5820   13.9588 C.ar    1  UNL1        0.0343
     11 C          64.0464   82.1261   13.6979 C.ar    1  UNL1        0.0083
     12 C          62.7399   81.5056   14.0955 C.ar    1  UNL1        0.0906
     13 C          61.6825   82.3412   14.7541 C.ar    1  UNL1        0.1041
     14 N          61.9315   83.7972   15.0150 N.ar    1  UNL1       -0.2292
     15 C          62.4908   80.0497   13.8346 C.3     1  UNL1        0.4200
     16 F          62.2416   78.5937   13.5737 F       1  UNL1       -0.1658
     17 F          61.0175   80.3174   13.7471 F       1  UNL1       -0.1658
     18 F          63.9640   79.7819   13.9222 F       1  UNL1       -0.1658
     19 C          64.9042   91.0865   14.6182 C.3     1  UNL1        0.1241
     20 C          64.3265   91.1704   13.2364 C.ar    1  UNL1       -0.0096
     21 C          63.0271   90.4894   12.9240 C.ar    1  UNL1       -0.0026
     22 C          62.4495   90.5734   11.5423 C.ar    1  UNL1        0.0111
     23 C          63.1714   91.3384   10.4729 C.ar    1  UNL1        0.0577
     24 CL         62.5937   91.4224    9.0910 Cl      1  UNL1       -0.0822
     25 C          64.4708   92.0194   10.7852 C.ar    1  UNL1        0.0111
     26 C          65.0484   91.9354   12.1669 C.ar    1  UNL1       -0.0026
     27 C          66.1516   91.8474   14.9571 C.ar    1  UNL1        0.0286
     28 C          66.1615   92.7896   16.1243 C.ar    1  UNL1        0.0987
     29 N          67.4090   93.5506   16.4632 N.ar    1  UNL1       -0.2227
     30 C          68.6464   93.3694   15.6350 C.ar    1  UNL1        0.1989
     31 N          68.6364   92.4272   14.4679 N.ar    1  UNL1       -0.2227
     32 C          67.3891   91.6662   14.1289 C.ar    1  UNL1        0.0987
@<TRIPOS>BOND
     1     1     2    2
     2     2    19    1
     3    19    20    1
     4    20    21   ar
     5    21    22   ar
     6    22    23   ar
     7    23    24    1
     8    23    25   ar
     9    25    26   ar
    10    19    27    1
    11    27    28   ar
    12    28    29   ar
    13    29    30   ar
    14    30    31   ar
    15    31    32   ar
    16     2     3   am
    17     3     4    1
    18     4     5    1
    19     5     6    1
    20     6     9    1
    21     9    10   ar
    22    10    11   ar
    23    11    12   ar
    24    12    15    1
    25    15    16    1
    26    15    17    1
    27    15    18    1
    28    12    13   ar
    29    13    14   ar
    30     6     7    1
    31     7     8    1
    32    26    20   ar
    33    32    27   ar
    34     8     3    1
    35    14     9   ar
@<TRIPOS>MOLECULE
*****
 32 35 0 0 0
SMALL
GASTEIGER

@<TRIPOS>ATOM
      1 O          64.9385   90.8730   14.8893 O.2     1  UNL1       -0.2742
      2 C          64.3422   90.2182   13.6787 C.2     1  UNL1        0.2336
      3 N          64.0536   88.7462   13.6877 N.am    1  UNL1       -0.2755
      4 C          63.4573   88.0914   12.4770 C.3     1  UNL1        0.1149
      5 C          63.1688   86.6195   12.4860 C.3     1  UNL1        0.1137
      6 N          63.4765   85.8023   13.7057 N.pl3   1  UNL1       -0.2897
      7 C          64.0728   86.4571   14.9163 C.3     1  UNL1        0.1137
      8 C          64.3614   87.9291   14.9073 C.3     1  UNL1        0.1149
      9 C          63.1880   84.3304   13.7147 C.ar    1  UNL1        0.1318
     10 C          62.3662   83.7339   14.8188 C.ar    1  UNL1        0.0343
     11 C          62.0777   82.2620   14.8278 C.ar    1  UNL1        0.0083
     12 C          62.6108   81.3865   13.7327 C.ar    1  UNL1        0.0906
     13 C          63.4326   81.9829   12.6287 C.ar    1  UNL1        0.1041
     14 N          63.7212   83.4549   12.6196 N.ar    1  UNL1       -0.2292
     15 C          62.3223   79.9145   13.7418 C.3     1  UNL1        0.4200
     16 F          62.0338   78.4425   13.7508 F       1  UNL1       -0.1658
     17 F          63.7878   79.6281   13.8840 F       1  UNL1       -0.1658
     18 F          60.8568   80.2009   13.5995 F       1  UNL1       -0.1658
     19 C          64.0344   91.0353   12.4590 C.3     1  UNL1        0.1241
     20 C          62.9009   90.6417   11.5589 C.ar    1  UNL1       -0.0096
     21 C          63.1800   90.1810   10.1590 C.ar    1  UNL1       -0.0026
     22 C          62.0465   89.7874    9.2589 C.ar    1  UNL1        0.0111
     23 C          60.6338   89.8544    9.7588 C.ar    1  UNL1        0.0577
     24 CL         59.5002   89.4607    8.8587 Cl      1  UNL1       -0.0822
     25 C          60.3547   90.3150   11.1587 C.ar    1  UNL1        0.0111
     26 C          61.4882   90.7087   12.0588 C.ar    1  UNL1       -0.0026
     27 C          64.8602   92.2461   12.1395 C.ar    1  UNL1        0.0286
     28 C          65.7433   92.8504   13.1906 C.ar    1  UNL1        0.0987
     29 N          66.5690   94.0612   12.8710 N.ar    1  UNL1       -0.2227
     30 C          66.5117   94.6677   11.5003 C.ar    1  UNL1        0.1989
     31 N          65.6285   94.0634   10.4492 N.ar    1  UNL1       -0.2227
     32 C          64.8028   92.8526   10.7687 C.ar    1  UNL1        0.0987
@<TRIPOS>BOND
     1     1     2    2
     2     2    19    1
     3    19    20    1
     4    20    21   ar
     5    21    22   ar
     6    22    23   ar
     7    23    24    1
     8    23    25   ar
     9    25    26   ar
    10    19    27    1
    11    27    28   ar
    12    28    29   ar
    13    29    30   ar
    14    30    31   ar
    15    31    32   ar
    16     2     3   am
    17     3     4    1
    18     4     5    1
    19     5     6    1
    20     6     9    1
    21     9    10   ar
    22    10    11   ar
    23    11    12   ar
    24    12    15    1
    25    15    16    1
    26    15    17    1
    27    15    18    1
    28    12    13   ar
    29    13    14   ar
    30     6     7    1
    31     7     8    1
    32    26    20   ar
    33    32    27   ar
    34     8     3    1
    35    14     9   ar
@<TRIPOS>MOLECULE
*****
 32 35 0 0 0
SMALL
GASTEIGER

@<TRIPOS>ATOM
      1 O          64.9211   83.1307   11.3179 O.2     1  UNL1       -0.2742
      2 C          63.6852   83.7904   11.8543 C.2     1  UNL1        0.2336
      3 N          62.9183   84.7547   10.9988 N.am    1  UNL1       -0.2755
      4 C          61.6824   85.4143   11.5352 C.3     1  UNL1        0.1149
      5 C          60.9155   86.3787   10.6797 C.3     1  UNL1        0.1137
      6 N          61.3844   86.6834    9.2879 N.pl3   1  UNL1       -0.2897
      7 C          62.6202   86.0239    8.7515 C.3     1  UNL1        0.1137
      8 C          63.3872   85.0595    9.6070 C.3     1  UNL1        0.1149
      9 C          60.6175   87.6478    8.4324 C.ar    1  UNL1        0.1318
     10 C          59.6182   87.1369    7.4372 C.ar    1  UNL1        0.0343
     11 C          58.8513   88.1012    6.5817 C.ar    1  UNL1        0.0083
     12 C          59.0837   89.5765    6.7214 C.ar    1  UNL1        0.0906
     13 C          60.0829   90.0874    7.7166 C.ar    1  UNL1        0.1041
     14 N          60.8499   89.1231    8.5721 N.ar    1  UNL1       -0.2292
     15 C          58.3168   90.5408    5.8660 C.3     1  UNL1        0.4200
     16 F          57.5498   91.5052    5.0105 F       1  UNL1       -0.1658
     17 F          57.0337   89.8735    6.2639 F       1  UNL1       -0.1658
     18 F          59.5998   91.2081    5.4680 F       1  UNL1       -0.1658
     19 C          63.2163   83.4856   13.2461 C.3     1  UNL1        0.1241
     20 C          63.2200   84.5616   14.2913 C.ar    1  UNL1       -0.0096
     21 C          64.1143   85.7556   14.1352 C.ar    1  UNL1       -0.0026
     22 C          64.1180   86.8316   15.1803 C.ar    1  UNL1        0.0111
     23 C          63.2273   86.7135   16.3815 C.ar    1  UNL1        0.0577
     24 CL         63.2309   87.7895   17.4266 Cl      1  UNL1       -0.0822
     25 C          62.3329   85.5194   16.5375 C.ar    1  UNL1        0.0111
     26 C          62.3293   84.4435   15.4924 C.ar    1  UNL1       -0.0026
     27 C          62.7438   82.1049   13.5929 C.ar    1  UNL1        0.0286
     28 C          61.2770   81.8303   13.7450 C.ar    1  UNL1        0.0987
     29 N          60.8045   80.4495   14.0918 N.ar    1  UNL1       -0.2227
     30 C          61.7987   79.3433   14.2864 C.ar    1  UNL1        0.1989
     31 N          63.2655   79.6179   14.1342 N.ar    1  UNL1       -0.2227
     32 C          63.7380   80.9986   13.7875 C.ar    1  UNL1        0.0987
@<TRIPOS>BOND
     1     1     2    2
     2     2    19    1
     3    19    20    1
     4    20    21   ar
     5    21    22   ar
     6    22    23   ar
     7    23    24    1
     8    23    25   ar
     9    25    26   ar
    10    19    27    1
    11    27    28   ar
    12    28    29   ar
    13    29    30   ar
    14    30    31   ar
    15    31    32   ar
    16     2     3   am
    17     3     4    1
    18     4     5    1
    19     5     6    1
    20     6     9    1
    21     9    10   ar
    22    10    11   ar
    23    11    12   ar
    24    12    15    1
    25    15    16    1
    26    15    17    1
    27    15    18    1
    28    12    13   ar
    29    13    14   ar
    30     6     7    1
    31     7     8    1
    32    26    20   ar
    33    32    27   ar
    34     8     3    1
    35    14     9   ar
@<TRIPOS>MOLECULE
*****
 32 35 0 0 0
SMALL
GASTEIGER

@<TRIPOS>ATOM
      1 O          65.3176   96.0981   -3.4994 O.2     1  UNL1       -0.2742
      2 C          64.1767   95.1305   -3.6104 C.2     1  UNL1        0.2336
      3 N          63.5142   94.6067   -2.3708 N.am    1  UNL1       -0.2755
      4 C          62.3733   93.6391   -2.4818 C.3     1  UNL1        0.1149
      5 C          61.7108   93.1154   -1.2422 C.3     1  UNL1        0.1137
      6 N          62.1890   93.5592    0.1085 N.pl3   1  UNL1       -0.2897
      7 C          63.3298   94.5268    0.2195 C.3     1  UNL1        0.1137
      8 C          63.9924   95.0506   -1.0201 C.3     1  UNL1        0.1149
      9 C          61.5265   93.0355    1.3481 C.ar    1  UNL1        0.1318
     10 C          60.0589   93.2575    1.5651 C.ar    1  UNL1        0.0343
     11 C          59.3964   92.7338    2.8047 C.ar    1  UNL1        0.0083
     12 C          60.2013   91.9880    3.8274 C.ar    1  UNL1        0.0906
     13 C          61.6688   91.7659    3.6104 C.ar    1  UNL1        0.1041
     14 N          62.3314   92.2897    2.3708 N.ar    1  UNL1       -0.2292
     15 C          59.5388   91.4643    5.0670 C.3     1  UNL1        0.4200
     16 F          58.8762   90.9405    6.3067 F       1  UNL1       -0.1658
     17 F          58.4264   92.4550    4.8911 F       1  UNL1       -0.1658
     18 F          60.6511   90.4735    5.2429 F       1  UNL1       -0.1658
     19 C          63.6984   94.6867   -4.9611 C.3     1  UNL1        0.1241
     20 C          62.4155   95.2290   -5.5179 C.ar    1  UNL1       -0.0096
     21 C          61.8852   94.7103   -6.8216 C.ar    1  UNL1       -0.0026
     22 C          60.6023   95.2526   -7.3784 C.ar    1  UNL1        0.0111
     23 C          59.8497   96.3136   -6.6314 C.ar    1  UNL1        0.0577
     24 CL         58.5667   96.8559   -7.1883 Cl      1  UNL1       -0.0822
     25 C          60.3800   96.8322   -5.3277 C.ar    1  UNL1        0.0111
     26 C          61.6629   96.2899   -4.7709 C.ar    1  UNL1       -0.0026
     27 C          64.5031   93.7006   -5.7549 C.ar    1  UNL1        0.0286
     28 C          64.0958   92.2574   -5.7922 C.ar    1  UNL1        0.0987
     29 N          64.9005   91.2713   -6.5861 N.ar    1  UNL1       -0.2227
     30 C          66.1124   91.7284   -7.3426 C.ar    1  UNL1        0.1989
     31 N          66.5196   93.1716   -7.3053 N.ar    1  UNL1       -0.2227
     32 C          65.7150   94.1577   -6.5115 C.ar    1  UNL1        0.0987
@<TRIPOS>BOND
     1     1     2    2
     2     2    19    1
     3    19    20    1
     4    20    21   ar
     5    21    22   ar
     6    22    23   ar
     7    23    24    1
     8    23    25   ar
     9    25    26   ar
    10    19    27    1
    11    27    28   ar
    12    28    29   ar
    13    29    30   ar
    14    30    31   ar
    15    31    32   ar
    16     2     3   am
    17     3     4    1
    18     4     5    1
    19     5     6    1
    20     6     9    1
    21     9    10   ar
    22    10    11   ar
    23    11    12   ar
    24    12    15    1
    25    15    16    1
    26    15    17    1
    27    15    18    1
    28    12    13   ar
    29    13    14   ar
    30     6     7    1
    31     7     8    1
    32    26    20   ar
    33    32    27   ar
    34     8     3    1
    35    14     9   ar
