@<TRIPOS>MOLECULE
*****
 40 45 0 0 0
SMALL
GASTEIGER

@<TRIPOS>ATOM
      1 C          59.7576   89.4223    7.0397 C.ar    1  UNL1        0.1319
      2 C          59.0018   88.1289    6.9628 C.ar    1  UNL1        0.0343
      3 C          58.9836   87.1998    8.1402 C.ar    1  UNL1        0.0046
      4 C          59.7212   87.5641    9.3945 C.ar    1  UNL1        0.0239
      5 C          60.4770   88.8575    9.4713 C.ar    1  UNL1        0.1358
      6 N          60.4952   89.7866    8.2939 N.ar    1  UNL1       -0.2261
      7 N          59.8121   92.2096    3.5072 N.pl3   1  UNL1       -0.3029
      8 C          61.1002   91.6811    4.0655 C.3     1  UNL1        0.1123
      9 C          61.0820   90.7520    5.2430 C.3     1  UNL1        0.1135
     10 N          59.7758   90.3514    5.8621 N.pl3   1  UNL1       -0.2914
     11 C          58.4878   90.8799    5.3038 C.3     1  UNL1        0.0939
     12 C          57.1816   90.4793    5.9231 C.3     1  UNL1        0.0233
     13 C          58.5060   91.8090    4.1264 C.3     1  UNL1        0.1106
     14 C          59.8667   94.9969   -0.0253 C.ar    1  UNL1        0.1345
     15 C          59.1268   93.6947   -0.1087 C.ar    1  UNL1        0.0250
     16 C          59.1086   92.7657    1.0688 C.ar    1  UNL1        0.0178
     17 C          59.8303   93.1387    2.3297 C.ar    1  UNL1        0.0674
     18 C          60.5702   94.4408    2.4132 C.ar    1  UNL1        0.1134
     19 N          60.5884   95.3700    1.2357 N.ar    1  UNL1       -0.2380
     20 C          58.7610   96.8557   -3.3527 C.3     1  UNL1        0.1110
     21 N          58.7429   95.9267   -2.1752 N.am    1  UNL1       -0.2979
     22 C          59.8849   95.9259   -1.2027 C.2     1  UNL1        0.2636
     23 O          61.0451   96.8543   -1.4077 O.2     1  UNL1       -0.2685
     24 H          57.9814   95.3173   -2.0407 H       1  UNL1        0.1498
     25 C          61.2146   89.2217   10.7257 C.2     1  UNL1        0.2636
     26 O          60.4705   89.3556   12.0212 O.2     1  UNL1       -0.2685
     27 N          62.6962   89.4520   10.6845 N.am    1  UNL1       -0.3013
     28 H          63.1845   89.3641    9.8342 H       1  UNL1        0.1497
     29 C          63.4338   89.8163   11.9388 C.3     1  UNL1        0.0719
     30 C          64.1895   91.1097   12.0157 C.3     1  UNL1        0.0203
     31 C          64.1714   90.1806   13.1931 C.3     1  UNL1        0.0018
     32 C          64.9089   90.5448   14.4474 C.3     1  UNL1        0.0024
     33 C          64.1532   89.2514   14.3705 C.3     1  UNL1        0.0018
     34 C          63.4157   88.8871   13.1162 C.3     1  UNL1        0.0203
     35 C          65.2360   91.4842   13.9823 C.3     1  UNL1        0.0285
     36 C          65.6828   92.7674   13.3469 C.3     1  UNL1        0.0884
     37 O          66.4385   94.0609   13.4238 O.3     1  UNL1       -0.3867
     38 C          65.6647   91.8383   14.5243 C.3     1  UNL1        0.0269
     39 C          64.9452   92.4032   12.0926 C.3     1  UNL1        0.0285
     40 H          66.8547   94.1408   14.2963 H       1  UNL1        0.2102
@<TRIPOS>BOND
     1    20    21    1
     2    21    22   am
     3    22    23    2
     4    22    14    1
     5    14    15   ar
     6    15    16   ar
     7    16    17   ar
     8    17     7    1
     9     7     8    1
    10     8     9    1
    11     9    10    1
    12    10     1    1
    13     1     2   ar
    14     2     3   ar
    15     3     4   ar
    16     4     5   ar
    17     5    25    1
    18    25    26    2
    19    25    27   am
    20    27    29    1
    21    29    30    1
    22    30    31    1
    23    31    32    1
    24    32    33    1
    25    33    34    1
    26    34    35    1
    27    35    36    1
    28    36    37    1
    29    36    38    1
    30    36    39    1
    31     5     6   ar
    32    10    11    1
    33    11    12    1
    34    11    13    1
    35    17    18   ar
    36    18    19   ar
    37    19    14   ar
    38    13     7    1
    39     6     1   ar
    40    34    29    1
    41    39    30    1
    42    38    32    1
    43    21    24    1
    44    27    28    1
    45    37    40    1
@<TRIPOS>MOLECULE
*****
 40 45 0 0 0
SMALL
GASTEIGER

@<TRIPOS>ATOM
      1 C          59.2366   89.6845    6.4509 C.ar    1  UNL1        0.1319
      2 C          57.7452   89.8447    6.4454 C.ar    1  UNL1        0.0343
      3 C          57.0991   90.8203    5.5070 C.ar    1  UNL1        0.0046
      4 C          57.9445   91.6358    4.5741 C.ar    1  UNL1        0.0239
      5 C          59.4359   91.4757    4.5797 C.ar    1  UNL1        0.1358
      6 N          60.0820   90.5000    5.5181 N.ar    1  UNL1       -0.2261
      7 N          61.1747   86.7575    9.2663 N.pl3   1  UNL1       -0.3029
      8 C          60.7464   86.3122    7.8994 C.3     1  UNL1        0.1123
      9 C          60.1004   87.2879    6.9610 C.3     1  UNL1        0.1135
     10 N          59.8827   88.7087    7.3894 N.pl3   1  UNL1       -0.2914
     11 C          60.3109   89.1540    8.7563 C.3     1  UNL1        0.0939
     12 C          60.0931   90.5750    9.1847 C.3     1  UNL1        0.0233
     13 C          60.9569   88.1783    9.6947 C.3     1  UNL1        0.1106
     14 C          63.1128   83.8303   12.0816 C.ar    1  UNL1        0.1345
     15 C          63.3568   83.7250   10.6053 C.ar    1  UNL1        0.0250
     16 C          62.7108   84.7007    9.6669 C.ar    1  UNL1        0.0178
     17 C          61.8207   85.7817   10.2047 C.ar    1  UNL1        0.0674
     18 C          61.5767   85.8870   11.6810 C.ar    1  UNL1        0.1134
     19 N          62.2228   84.9113   12.6194 N.ar    1  UNL1       -0.2380
     20 C          63.9679   80.4440   13.9661 C.3     1  UNL1        0.1110
     21 N          63.3219   81.4197   13.0277 N.am    1  UNL1       -0.2979
     22 C          63.7588   82.8546   13.0200 C.2     1  UNL1        0.2636
     23 O          64.8419   83.3138   13.9506 O.2     1  UNL1       -0.2685
     24 H          62.6110   81.1183   12.4169 H       1  UNL1        0.1498
     25 C          60.2813   92.2912    3.6467 C.2     1  UNL1        0.2636
     26 O          59.9001   93.7079    3.3339 O.2     1  UNL1       -0.2685
     27 N          61.5077   91.6902    3.0267 N.am    1  UNL1       -0.3013
     28 H          61.7579   90.7604    3.2320 H       1  UNL1        0.1497
     29 C          62.3531   92.5057    2.0938 C.3     1  UNL1        0.0719
     30 C          61.9397   92.6758    0.6619 C.3     1  UNL1        0.0203
     31 C          63.1984   93.3212    1.1609 C.3     1  UNL1        0.0018
     32 C          64.0437   94.1368    0.2279 C.3     1  UNL1        0.0024
     33 C          64.4571   93.9667    1.6598 C.3     1  UNL1        0.0018
     34 C          63.6118   93.1512    2.5927 C.3     1  UNL1        0.0203
     35 C          63.3369   93.9358   -0.5881 C.3     1  UNL1        0.0285
     36 C          62.3715   93.6614   -1.7028 C.3     1  UNL1        0.0884
     37 O          61.9581   93.8314   -3.1347 O.3     1  UNL1       -0.3867
     38 C          63.6302   94.3068   -1.2039 C.3     1  UNL1        0.0269
     39 C          61.5262   92.8459   -0.7699 C.3     1  UNL1        0.0285
     40 H          62.6096   94.3824   -3.5961 H       1  UNL1        0.2102
@<TRIPOS>BOND
     1    20    21    1
     2    21    22   am
     3    22    23    2
     4    22    14    1
     5    14    15   ar
     6    15    16   ar
     7    16    17   ar
     8    17     7    1
     9     7     8    1
    10     8     9    1
    11     9    10    1
    12    10     1    1
    13     1     2   ar
    14     2     3   ar
    15     3     4   ar
    16     4     5   ar
    17     5    25    1
    18    25    26    2
    19    25    27   am
    20    27    29    1
    21    29    30    1
    22    30    31    1
    23    31    32    1
    24    32    33    1
    25    33    34    1
    26    34    35    1
    27    35    36    1
    28    36    37    1
    29    36    38    1
    30    36    39    1
    31     5     6   ar
    32    10    11    1
    33    11    12    1
    34    11    13    1
    35    17    18   ar
    36    18    19   ar
    37    19    14   ar
    38    13     7    1
    39     6     1   ar
    40    34    29    1
    41    39    30    1
    42    38    32    1
    43    21    24    1
    44    27    28    1
    45    37    40    1
@<TRIPOS>MOLECULE
*****
 40 45 0 0 0
SMALL
GASTEIGER

@<TRIPOS>ATOM
      1 C          64.0470   88.8842   14.6870 C.ar    1  UNL1        0.1319
      2 C          63.5348   89.1491   16.0717 C.ar    1  UNL1        0.0343
      3 C          63.7099   90.5047   16.6895 C.ar    1  UNL1        0.0046
      4 C          64.3973   91.5952   15.9226 C.ar    1  UNL1        0.0239
      5 C          64.9096   91.3303   14.5379 C.ar    1  UNL1        0.1358
      6 N          64.7344   89.9747   13.9201 N.ar    1  UNL1       -0.2261
      7 N          63.5214   84.8174   12.8335 N.pl3   1  UNL1       -0.3029
      8 C          64.1642   84.9495   14.1823 C.3     1  UNL1        0.1123
      9 C          64.3394   86.3050   14.8001 C.3     1  UNL1        0.1135
     10 N          63.8718   87.5285   14.0691 N.pl3   1  UNL1       -0.2914
     11 C          63.2290   87.3965   12.7203 C.3     1  UNL1        0.0939
     12 C          62.7614   88.6200   11.9893 C.3     1  UNL1        0.0233
     13 C          63.0538   86.0409   12.1025 C.3     1  UNL1        0.1106
     14 C          62.9959   80.7506   10.9800 C.ar    1  UNL1        0.1345
     15 C          63.6554   81.8502   10.2014 C.ar    1  UNL1        0.0250
     16 C          63.8306   83.2057   10.8193 C.ar    1  UNL1        0.0178
     17 C          63.3462   83.4618   12.2156 C.ar    1  UNL1        0.0674
     18 C          62.6867   82.3623   12.9941 C.ar    1  UNL1        0.1134
     19 N          62.5115   81.0067   12.3763 N.ar    1  UNL1       -0.2380
     20 C          62.8788   76.8056   10.5646 C.3     1  UNL1        0.1110
     21 N          63.0539   78.1611   11.1824 N.am    1  UNL1       -0.2979
     22 C          62.8207   79.3951   10.3621 C.2     1  UNL1        0.2636
     23 O          62.4123   79.2735    8.9239 O.2     1  UNL1       -0.2685
     24 H          63.3220   78.2409   12.1264 H       1  UNL1        0.1498
     25 C          65.5970   92.4209   13.7711 C.2     1  UNL1        0.2636
     26 O          66.7573   93.1500   14.3811 O.2     1  UNL1       -0.2685
     27 N          65.1241   92.7824   12.3943 N.am    1  UNL1       -0.3013
     28 H          64.3626   92.3038   11.9939 H       1  UNL1        0.1497
     29 C          65.8116   93.8730   11.6274 C.3     1  UNL1        0.0719
     30 C          66.4777   93.5649   10.3192 C.3     1  UNL1        0.0203
     31 C          66.4990   94.9636   10.8605 C.3     1  UNL1        0.0018
     32 C          67.1864   96.0541   10.0937 C.3     1  UNL1        0.0024
     33 C          66.5203   96.3623   11.4019 C.3     1  UNL1        0.0018
     34 C          65.8329   95.2717   12.1687 C.3     1  UNL1        0.0203
     35 C          67.4589   95.3327    9.3119 C.3     1  UNL1        0.0285
     36 C          67.8311   94.3473    8.2441 C.3     1  UNL1        0.0884
     37 O          68.4972   94.0391    6.9359 O.3     1  UNL1       -0.3867
     38 C          67.8525   95.7460    8.7855 C.3     1  UNL1        0.0269
     39 C          67.1437   93.2567    9.0110 C.3     1  UNL1        0.0285
     40 H          68.8903   94.8489    6.5746 H       1  UNL1        0.2102
@<TRIPOS>BOND
     1    20    21    1
     2    21    22   am
     3    22    23    2
     4    22    14    1
     5    14    15   ar
     6    15    16   ar
     7    16    17   ar
     8    17     7    1
     9     7     8    1
    10     8     9    1
    11     9    10    1
    12    10     1    1
    13     1     2   ar
    14     2     3   ar
    15     3     4   ar
    16     4     5   ar
    17     5    25    1
    18    25    26    2
    19    25    27   am
    20    27    29    1
    21    29    30    1
    22    30    31    1
    23    31    32    1
    24    32    33    1
    25    33    34    1
    26    34    35    1
    27    35    36    1
    28    36    37    1
    29    36    38    1
    30    36    39    1
    31     5     6   ar
    32    10    11    1
    33    11    12    1
    34    11    13    1
    35    17    18   ar
    36    18    19   ar
    37    19    14   ar
    38    13     7    1
    39     6     1   ar
    40    34    29    1
    41    39    30    1
    42    38    32    1
    43    21    24    1
    44    27    28    1
    45    37    40    1
@<TRIPOS>MOLECULE
*****
 40 45 0 0 0
SMALL
GASTEIGER

@<TRIPOS>ATOM
      1 C          59.9014   89.8454    6.7020 C.ar    1  UNL1        0.1319
      2 C          59.0153   88.6353    6.7178 C.ar    1  UNL1        0.0343
      3 C          58.9418   87.7755    7.9447 C.ar    1  UNL1        0.0046
      4 C          59.7546   88.1258    9.1558 C.ar    1  UNL1        0.0239
      5 C          60.6408   89.3359    9.1399 C.ar    1  UNL1        0.1358
      6 N          60.7142   90.1957    7.9130 N.ar    1  UNL1       -0.2261
      7 N          60.1215   92.4248    3.0212 N.pl3   1  UNL1       -0.3029
      8 C          61.3745   91.8426    3.6051 C.3     1  UNL1        0.1123
      9 C          61.3012   90.9828    4.8320 C.3     1  UNL1        0.1135
     10 N          59.9748   90.7052    5.4750 N.pl3   1  UNL1       -0.2914
     11 C          58.7217   91.2874    4.8912 C.3     1  UNL1        0.0939
     12 C          57.3953   91.0098    5.5343 C.3     1  UNL1        0.0233
     13 C          58.7951   92.1472    3.6642 C.3     1  UNL1        0.1106
     14 C          60.3417   95.0042   -0.6596 C.ar    1  UNL1        0.1345
     15 C          61.5118   94.9310    0.2761 C.ar    1  UNL1        0.0250
     16 C          61.4384   94.0712    1.5029 C.ar    1  UNL1        0.0178
     17 C          60.1949   93.2846    1.7942 C.ar    1  UNL1        0.0674
     18 C          59.0247   93.3578    0.8586 C.ar    1  UNL1        0.1134
     19 N          59.0981   94.2176   -0.3684 N.ar    1  UNL1       -0.2380
     20 C          61.7821   96.8544   -3.8615 C.3     1  UNL1        0.1110
     21 N          61.7087   95.9946   -2.6346 N.am    1  UNL1       -0.2979
     22 C          60.4151   95.8640   -1.8865 C.2     1  UNL1        0.2636
     23 O          59.1949   96.5933   -2.3654 O.2     1  UNL1       -0.2685
     24 H          62.5095   95.5159   -2.3203 H       1  UNL1        0.1498
     25 C          61.4536   89.6863   10.3510 C.2     1  UNL1        0.2636
     26 O          61.0668   89.1459   11.6958 O.2     1  UNL1       -0.2685
     27 N          62.6530   90.5769   10.2174 N.am    1  UNL1       -0.3013
     28 H          62.9069   90.9316    9.3347 H       1  UNL1        0.1497
     29 C          63.4658   90.9273   11.4285 C.3     1  UNL1        0.0719
     30 C          63.1495   90.2965   12.7521 C.3     1  UNL1        0.0203
     31 C          64.2785   91.2775   12.6396 C.3     1  UNL1        0.0018
     32 C          65.0912   91.6278   13.8506 C.3     1  UNL1        0.0024
     33 C          65.4075   92.2586   12.5270 C.3     1  UNL1        0.0018
     34 C          64.5948   91.9083   11.3159 C.3     1  UNL1        0.0203
     35 C          64.4803   90.9465   14.4577 C.3     1  UNL1        0.0285
     36 C          63.6458   90.0159   15.2868 C.3     1  UNL1        0.0884
     37 O          63.3295   89.3851   16.6105 O.3     1  UNL1       -0.3867
     38 C          64.7749   90.9970   15.1743 C.3     1  UNL1        0.0269
     39 C          62.8331   89.6657   14.0758 C.3     1  UNL1        0.0285
     40 H          63.9448   89.7178   17.2825 H       1  UNL1        0.2102
@<TRIPOS>BOND
     1    20    21    1
     2    21    22   am
     3    22    23    2
     4    22    14    1
     5    14    15   ar
     6    15    16   ar
     7    16    17   ar
     8    17     7    1
     9     7     8    1
    10     8     9    1
    11     9    10    1
    12    10     1    1
    13     1     2   ar
    14     2     3   ar
    15     3     4   ar
    16     4     5   ar
    17     5    25    1
    18    25    26    2
    19    25    27   am
    20    27    29    1
    21    29    30    1
    22    30    31    1
    23    31    32    1
    24    32    33    1
    25    33    34    1
    26    34    35    1
    27    35    36    1
    28    36    37    1
    29    36    38    1
    30    36    39    1
    31     5     6   ar
    32    10    11    1
    33    11    12    1
    34    11    13    1
    35    17    18   ar
    36    18    19   ar
    37    19    14   ar
    38    13     7    1
    39     6     1   ar
    40    34    29    1
    41    39    30    1
    42    38    32    1
    43    21    24    1
    44    27    28    1
    45    37    40    1
