@<TRIPOS>MOLECULE
*****
 33 36 0 0 0
SMALL
GASTEIGER

@<TRIPOS>ATOM
      1 N          62.2176   86.8347   11.5871 N.am    1  UNL1       -0.2683
      2 C          63.0143   87.8252   12.3836 C.2     1  UNL1        0.3047
      3 O          64.2695   87.3908   13.0806 O.2     1  UNL1       -0.2525
      4 N          62.5558   89.2499   12.4830 N.am    1  UNL1       -0.2863
      5 H          61.3938   87.1197   11.1296 H       1  UNL1        0.1564
      6 H          61.7320   89.5349   12.0256 H       1  UNL1        0.1512
      7 C          63.3525   90.2402   13.2795 C.3     1  UNL1        0.1019
      8 C          63.3211   90.1959   14.7785 C.3     1  UNL1        0.0642
      9 C          64.1178   91.1864   15.5750 C.3     1  UNL1        0.1352
     10 C          64.6967   91.9039   16.7582 C.3     1  UNL1        0.0437
     11 C          63.4907   90.4009   16.6885 C.3     1  UNL1        0.0437
     12 O          64.9460   92.2210   14.8724 O.3     1  UNL1       -0.4828
     13 C          64.9774   92.2653   13.3734 C.ar    1  UNL1        0.1357
     14 C          65.8056   93.3000   12.6709 C.ar    1  UNL1        0.0405
     15 C          65.8370   93.3442   11.1718 C.ar    1  UNL1        0.0744
     16 C          65.0403   92.3539   10.3754 C.ar    1  UNL1        0.0038
     17 C          64.2122   91.3192   11.0779 C.ar    1  UNL1        0.0003
     18 C          64.1807   91.2750   12.5769 C.ar    1  UNL1        0.0296
     19 C          66.6652   94.3790   10.4693 C.3     1  UNL1        0.4187
     20 F          67.4934   95.4137    9.7668 F       1  UNL1       -0.1659
     21 F          66.9881   93.3881    9.3905 F       1  UNL1       -0.1659
     22 F          66.3424   95.3698   11.5481 F       1  UNL1       -0.1659
     23 C          62.3387   84.9410   16.6516 C.3     1  UNL1        0.0521
     24 C          62.6523   84.3459   15.3109 C.ar    1  UNL1        0.0594
     25 C          62.5074   85.1754   14.0696 C.ar    1  UNL1        0.0160
     26 C          62.8210   84.5803   12.7290 C.ar    1  UNL1        0.0162
     27 C          62.6761   85.4100   11.4877 C.ar    1  UNL1        0.0516
     28 C          62.9897   84.8149   10.1470 C.ar    1  UNL1        0.0147
     29 C          63.4483   83.3901   10.0476 C.ar    1  UNL1        0.0013
     30 C          63.5931   82.5605   11.2888 C.ar    1  UNL1        0.0016
     31 C          63.2795   83.1556   12.6295 C.ar    1  UNL1        0.0204
     32 C          63.4244   82.3260   13.8708 C.ar    1  UNL1        0.0984
     33 N          63.1108   82.9212   15.2115 N.ar    1  UNL1       -0.2481
@<TRIPOS>BOND
     1    23    24    1
     2    24    25   ar
     3    25    26   ar
     4    26    27   ar
     5    27     1    1
     6     1     2   am
     7     2     3    2
     8     2     4   am
     9     7     4    1
    10     7     8    1
    11     8     9    1
    12     9    10    1
    13     9    11    1
    14     9    12    1
    15    12    13    1
    16    13    14   ar
    17    14    15   ar
    18    15    19    1
    19    19    20    1
    20    19    21    1
    21    19    22    1
    22    15    16   ar
    23    16    17   ar
    24    17    18   ar
    25    27    28   ar
    26    28    29   ar
    27    29    30   ar
    28    30    31   ar
    29    31    32   ar
    30    32    33   ar
    31    33    24   ar
    32    31    26   ar
    33    18     7    1
    34    18    13   ar
    35     1     5    1
    36     4     6    1
@<TRIPOS>MOLECULE
*****
 33 36 0 0 0
SMALL
GASTEIGER

@<TRIPOS>ATOM
      1 N          62.9033   90.1060   13.5480 N.am    1  UNL1       -0.2683
      2 C          63.2774   88.7008   13.1800 C.2     1  UNL1        0.3047
      3 O          64.5268   88.0866   13.7383 O.2     1  UNL1       -0.2525
      4 N          62.4021   87.9097   12.2537 N.am    1  UNL1       -0.2863
      5 H          62.0832   90.5091   13.1816 H       1  UNL1        0.1564
      6 H          61.5820   88.3128   11.8873 H       1  UNL1        0.1512
      7 C          62.7762   86.5046   11.8858 C.3     1  UNL1        0.1019
      8 C          63.3654   85.5903   12.9187 C.3     1  UNL1        0.0642
      9 C          63.7396   84.1851   12.5507 C.3     1  UNL1        0.1352
     10 C          64.2500   82.7811   12.6856 C.3     1  UNL1        0.0437
     11 C          64.1319   84.1884   13.9985 C.3     1  UNL1        0.0437
     12 O          63.5245   83.6941   11.1497 O.3     1  UNL1       -0.4828
     13 C          62.9353   84.6084   10.1168 C.ar    1  UNL1        0.1357
     14 C          62.7202   84.1174    8.7159 C.ar    1  UNL1        0.0405
     15 C          62.1310   85.0316    7.6829 C.ar    1  UNL1        0.0744
     16 C          61.7568   86.4368    8.0509 C.ar    1  UNL1        0.0038
     17 C          61.9719   86.9278    9.4518 C.ar    1  UNL1        0.0003
     18 C          62.5611   86.0135   10.4848 C.ar    1  UNL1        0.0296
     19 C          61.9159   84.5406    6.2819 C.3     1  UNL1        0.4187
     20 F          61.7009   84.0496    4.8810 F       1  UNL1       -0.1659
     21 F          60.4337   84.5331    6.5120 F       1  UNL1       -0.1659
     22 F          63.3981   84.5481    6.0518 F       1  UNL1       -0.1659
     23 C          66.3984   92.7720   10.3974 C.3     1  UNL1        0.0521
     24 C          66.1811   92.6988   11.8798 C.ar    1  UNL1        0.0594
     25 C          65.0885   91.8346   12.4359 C.ar    1  UNL1        0.0160
     26 C          64.8712   91.7614   13.9183 C.ar    1  UNL1        0.0162
     27 C          63.7786   90.8970   14.4743 C.ar    1  UNL1        0.0516
     28 C          63.5613   90.8238   15.9567 C.ar    1  UNL1        0.0147
     29 C          64.4366   91.6149   16.8830 C.ar    1  UNL1        0.0013
     30 C          65.5292   92.4792   16.3269 C.ar    1  UNL1        0.0016
     31 C          65.7465   92.5524   14.8446 C.ar    1  UNL1        0.0204
     32 C          66.8391   93.4166   14.2885 C.ar    1  UNL1        0.0984
     33 N          67.0564   93.4898   12.8061 N.ar    1  UNL1       -0.2481
@<TRIPOS>BOND
     1    23    24    1
     2    24    25   ar
     3    25    26   ar
     4    26    27   ar
     5    27     1    1
     6     1     2   am
     7     2     3    2
     8     2     4   am
     9     7     4    1
    10     7     8    1
    11     8     9    1
    12     9    10    1
    13     9    11    1
    14     9    12    1
    15    12    13    1
    16    13    14   ar
    17    14    15   ar
    18    15    19    1
    19    19    20    1
    20    19    21    1
    21    19    22    1
    22    15    16   ar
    23    16    17   ar
    24    17    18   ar
    25    27    28   ar
    26    28    29   ar
    27    29    30   ar
    28    30    31   ar
    29    31    32   ar
    30    32    33   ar
    31    33    24   ar
    32    31    26   ar
    33    18     7    1
    34    18    13   ar
    35     1     5    1
    36     4     6    1
@<TRIPOS>MOLECULE
*****
 33 36 0 0 0
SMALL
GASTEIGER

@<TRIPOS>ATOM
      1 N          61.5491   87.4855   11.3607 N.am    1  UNL1       -0.2683
      2 C          62.5443   88.3995   12.0121 C.2     1  UNL1        0.3047
      3 O          64.0118   88.2056   11.7693 O.2     1  UNL1       -0.2525
      4 N          62.0721   89.5075   12.9061 N.am    1  UNL1       -0.2863
      5 H          60.5860   87.6128   11.5201 H       1  UNL1        0.1564
      6 H          61.1089   89.6348   13.0654 H       1  UNL1        0.1512
      7 C          63.0673   90.4215   13.5573 C.3     1  UNL1        0.1019
      8 C          63.2080   90.4351   15.0507 C.3     1  UNL1        0.0642
      9 C          64.2032   91.3491   15.7019 C.3     1  UNL1        0.1352
     10 C          64.9974   92.0328   16.7751 C.3     1  UNL1        0.0437
     11 C          63.6246   90.6862   16.9167 C.3     1  UNL1        0.0437
     12 O          65.0577   92.2495   14.8599 O.3     1  UNL1       -0.4828
     13 C          64.9170   92.2359   13.3665 C.ar    1  UNL1        0.1357
     14 C          65.7715   93.1363   12.5245 C.ar    1  UNL1        0.0405
     15 C          65.6308   93.1227   11.0311 C.ar    1  UNL1        0.0744
     16 C          64.6356   92.2087   10.3799 C.ar    1  UNL1        0.0038
     17 C          63.7811   91.3083   11.2220 C.ar    1  UNL1        0.0003
     18 C          63.9218   91.3219   12.7153 C.ar    1  UNL1        0.0296
     19 C          66.4854   94.0231   10.1891 C.3     1  UNL1        0.4187
     20 F          67.3398   94.9236    9.3471 F       1  UNL1       -0.1659
     21 F          67.4856   92.9179   10.0222 F       1  UNL1       -0.1659
     22 F          65.4851   95.1284   10.3560 F       1  UNL1       -0.1659
     23 C          63.5290   83.6599   14.6310 C.3     1  UNL1        0.0521
     24 C          63.3882   83.7853   13.1429 C.ar    1  UNL1        0.0594
     25 C          62.7752   85.0187   12.5489 C.ar    1  UNL1        0.0160
     26 C          62.6344   85.1441   11.0607 C.ar    1  UNL1        0.0162
     27 C          62.0214   86.3775   10.4667 C.ar    1  UNL1        0.0516
     28 C          61.8806   86.5030    8.9786 C.ar    1  UNL1        0.0147
     29 C          62.3529   85.3949    8.0845 C.ar    1  UNL1        0.0013
     30 C          62.9660   84.1615    8.6786 C.ar    1  UNL1        0.0016
     31 C          63.1067   84.0361   10.1667 C.ar    1  UNL1        0.0204
     32 C          63.7197   82.8028   10.7608 C.ar    1  UNL1        0.0984
     33 N          63.8605   82.6773   12.2489 N.ar    1  UNL1       -0.2481
@<TRIPOS>BOND
     1    23    24    1
     2    24    25   ar
     3    25    26   ar
     4    26    27   ar
     5    27     1    1
     6     1     2   am
     7     2     3    2
     8     2     4   am
     9     7     4    1
    10     7     8    1
    11     8     9    1
    12     9    10    1
    13     9    11    1
    14     9    12    1
    15    12    13    1
    16    13    14   ar
    17    14    15   ar
    18    15    19    1
    19    19    20    1
    20    19    21    1
    21    19    22    1
    22    15    16   ar
    23    16    17   ar
    24    17    18   ar
    25    27    28   ar
    26    28    29   ar
    27    29    30   ar
    28    30    31   ar
    29    31    32   ar
    30    32    33   ar
    31    33    24   ar
    32    31    26   ar
    33    18     7    1
    34    18    13   ar
    35     1     5    1
    36     4     6    1
@<TRIPOS>MOLECULE
*****
 33 36 0 0 0
SMALL
GASTEIGER

@<TRIPOS>ATOM
      1 N          61.3176   88.6141   11.6926 N.am    1  UNL1       -0.2683
      2 C          62.5304   89.2987   12.2499 C.2     1  UNL1        0.3047
      3 O          63.8829   88.6676   12.1004 O.2     1  UNL1       -0.2525
      4 N          62.3906   90.6143   12.9567 N.am    1  UNL1       -0.2863
      5 H          60.4299   89.0282   11.7908 H       1  UNL1        0.1564
      6 H          61.5029   91.0285   13.0548 H       1  UNL1        0.1512
      7 C          63.6034   91.2988   13.5139 C.3     1  UNL1        0.1019
      8 C          63.8358   91.3243   14.9956 C.3     1  UNL1        0.0642
      9 C          65.0487   92.0089   15.5528 C.3     1  UNL1        0.1352
     10 C          66.0406   92.5270   16.5516 C.3     1  UNL1        0.0437
     11 C          64.4128   91.5298   16.8242 C.3     1  UNL1        0.0437
     12 O          66.0290   92.6679   14.6284 O.3     1  UNL1       -0.4828
     13 C          65.7966   92.6424   13.1468 C.ar    1  UNL1        0.1357
     14 C          66.7769   93.3014   12.2223 C.ar    1  UNL1        0.0405
     15 C          66.5445   93.2759   10.7407 C.ar    1  UNL1        0.0744
     16 C          65.3317   92.5914   10.1834 C.ar    1  UNL1        0.0038
     17 C          64.3514   91.9323   11.1078 C.ar    1  UNL1        0.0003
     18 C          64.5838   91.9579   12.5895 C.ar    1  UNL1        0.0296
     19 C          67.5249   93.9349    9.8162 C.3     1  UNL1        0.4187
     20 F          68.5053   94.5940    8.8919 F       1  UNL1       -0.1659
     21 F          67.8346   92.6047    9.1963 F       1  UNL1       -0.1659
     22 F          67.2152   95.2652   10.4362 F       1  UNL1       -0.1659
     23 C          58.8733   89.2157    6.9059 C.3     1  UNL1        0.0521
     24 C          59.5892   88.0786    7.5725 C.ar    1  UNL1        0.0594
     25 C          60.1653   88.2571    8.9458 C.ar    1  UNL1        0.0160
     26 C          60.8812   87.1199    9.6124 C.ar    1  UNL1        0.0162
     27 C          61.4574   87.2984   10.9859 C.ar    1  UNL1        0.0516
     28 C          62.1733   86.1613   11.6525 C.ar    1  UNL1        0.0147
     29 C          62.3130   84.8456   10.9456 C.ar    1  UNL1        0.0013
     30 C          61.7369   84.6671    9.5723 C.ar    1  UNL1        0.0016
     31 C          61.0210   85.8043    8.9057 C.ar    1  UNL1        0.0204
     32 C          60.4449   85.6258    7.5323 C.ar    1  UNL1        0.0984
     33 N          59.7289   86.7630    6.8657 N.ar    1  UNL1       -0.2481
@<TRIPOS>BOND
     1    23    24    1
     2    24    25   ar
     3    25    26   ar
     4    26    27   ar
     5    27     1    1
     6     1     2   am
     7     2     3    2
     8     2     4   am
     9     7     4    1
    10     7     8    1
    11     8     9    1
    12     9    10    1
    13     9    11    1
    14     9    12    1
    15    12    13    1
    16    13    14   ar
    17    14    15   ar
    18    15    19    1
    19    19    20    1
    20    19    21    1
    21    19    22    1
    22    15    16   ar
    23    16    17   ar
    24    17    18   ar
    25    27    28   ar
    26    28    29   ar
    27    29    30   ar
    28    30    31   ar
    29    31    32   ar
    30    32    33   ar
    31    33    24   ar
    32    31    26   ar
    33    18     7    1
    34    18    13   ar
    35     1     5    1
    36     4     6    1
@<TRIPOS>MOLECULE
*****
 33 36 0 0 0
SMALL
GASTEIGER

@<TRIPOS>ATOM
      1 N          62.6875   87.0290   12.4803 N.am    1  UNL1       -0.2683
      2 C          63.4733   88.1233   13.1399 C.2     1  UNL1        0.3047
      3 O          64.6216   87.7825   14.0428 O.2     1  UNL1       -0.2525
      4 N          63.1108   89.5583   12.8965 N.am    1  UNL1       -0.2863
      5 H          61.9338   87.2526   11.8877 H       1  UNL1        0.1564
      6 H          62.3572   89.7820   12.3039 H       1  UNL1        0.1512
      7 C          63.8967   90.6526   13.5561 C.3     1  UNL1        0.1019
      8 C          63.9033   90.7748   15.0511 C.3     1  UNL1        0.0642
      9 C          64.6892   91.8691   15.7106 C.3     1  UNL1        0.1352
     10 C          65.2751   92.7295   16.7906 C.3     1  UNL1        0.0437
     11 C          64.1135   91.1959   16.9212 C.3     1  UNL1        0.0437
     12 O          65.4684   92.8411   14.8752 O.3     1  UNL1       -0.4828
     13 C          65.4617   92.7189   13.3802 C.ar    1  UNL1        0.1357
     14 C          66.2409   93.6909   12.5448 C.ar    1  UNL1        0.0405
     15 C          66.2342   93.5687   11.0498 C.ar    1  UNL1        0.0744
     16 C          65.4484   92.4745   10.3902 C.ar    1  UNL1        0.0038
     17 C          64.6692   91.5025   11.2257 C.ar    1  UNL1        0.0003
     18 C          64.6759   91.6247   12.7207 C.ar    1  UNL1        0.0296
     19 C          67.0135   94.5408   10.2143 C.3     1  UNL1        0.4187
     20 F          67.7927   95.5129    9.3790 F       1  UNL1       -0.1659
     21 F          67.2108   93.4839    9.1685 F       1  UNL1       -0.1659
     22 F          66.8161   95.5978   11.2602 F       1  UNL1       -0.1659
     23 C          63.0131   84.7162    7.6024 C.3     1  UNL1        0.0521
     24 C          63.2036   84.2181    9.0044 C.ar    1  UNL1        0.0594
     25 C          63.0315   85.1550   10.1630 C.ar    1  UNL1        0.0160
     26 C          63.2220   84.6569   11.5650 C.ar    1  UNL1        0.0162
     27 C          63.0499   85.5940   12.7237 C.ar    1  UNL1        0.0516
     28 C          63.2404   85.0959   14.1257 C.ar    1  UNL1        0.0147
     29 C          63.6029   83.6608   14.3691 C.ar    1  UNL1        0.0013
     30 C          63.7749   82.7238   13.2104 C.ar    1  UNL1        0.0016
     31 C          63.5845   83.2219   11.8084 C.ar    1  UNL1        0.0204
     32 C          63.7565   82.2850   10.6497 C.ar    1  UNL1        0.0984
     33 N          63.5660   82.7830    9.2477 N.ar    1  UNL1       -0.2481
@<TRIPOS>BOND
     1    23    24    1
     2    24    25   ar
     3    25    26   ar
     4    26    27   ar
     5    27     1    1
     6     1     2   am
     7     2     3    2
     8     2     4   am
     9     7     4    1
    10     7     8    1
    11     8     9    1
    12     9    10    1
    13     9    11    1
    14     9    12    1
    15    12    13    1
    16    13    14   ar
    17    14    15   ar
    18    15    19    1
    19    19    20    1
    20    19    21    1
    21    19    22    1
    22    15    16   ar
    23    16    17   ar
    24    17    18   ar
    25    27    28   ar
    26    28    29   ar
    27    29    30   ar
    28    30    31   ar
    29    31    32   ar
    30    32    33   ar
    31    33    24   ar
    32    31    26   ar
    33    18     7    1
    34    18    13   ar
    35     1     5    1
    36     4     6    1
@<TRIPOS>MOLECULE
*****
 33 36 0 0 0
SMALL
GASTEIGER

@<TRIPOS>ATOM
      1 N          59.2271   95.3277   -3.4224 N.am    1  UNL1       -0.2683
      2 C          60.2817   94.7365   -2.5344 C.2     1  UNL1        0.3047
      3 O          61.0483   93.5277   -2.9829 O.2     1  UNL1       -0.2525
      4 N          60.5695   95.3540   -1.1981 N.am    1  UNL1       -0.2863
      5 H          58.7239   96.1211   -3.1281 H       1  UNL1        0.1564
      6 H          60.0663   96.1473   -0.9038 H       1  UNL1        0.1512
      7 C          61.6240   94.7627   -0.3102 C.3     1  UNL1        0.1019
      8 C          63.0748   94.9991   -0.6089 C.3     1  UNL1        0.0642
      9 C          64.1294   94.4077    0.2791 C.3     1  UNL1        0.1352
     10 C          65.4850   94.0623    0.8201 C.3     1  UNL1        0.0437
     11 C          64.9965   95.1154   -0.7196 C.3     1  UNL1        0.0437
     12 O          63.7330   93.5801    1.4656 O.3     1  UNL1       -0.4828
     13 C          62.2822   93.3437    1.7642 C.ar    1  UNL1        0.1357
     14 C          61.8858   92.5161    2.9508 C.ar    1  UNL1        0.0405
     15 C          60.4350   92.2797    3.2494 C.ar    1  UNL1        0.0744
     16 C          59.3805   92.8710    2.3615 C.ar    1  UNL1        0.0038
     17 C          59.7768   93.6986    1.1750 C.ar    1  UNL1        0.0003
     18 C          61.2277   93.9350    0.8764 C.ar    1  UNL1        0.0296
     19 C          60.0386   91.4520    4.4360 C.3     1  UNL1        0.4187
     20 F          59.6424   90.6244    5.6225 F       1  UNL1       -0.1659
     21 F          58.5946   91.7527    4.1634 F       1  UNL1       -0.1659
     22 F          61.4827   91.1514    4.7086 F       1  UNL1       -0.1659
     23 C          55.7691   91.2756   -2.4888 C.3     1  UNL1        0.0521
     24 C          56.4177   91.8255   -3.7244 C.ar    1  UNL1        0.0594
     25 C          57.3542   92.9929   -3.6238 C.ar    1  UNL1        0.0160
     26 C          58.0028   93.5428   -4.8594 C.ar    1  UNL1        0.0162
     27 C          58.9393   94.7102   -4.7587 C.ar    1  UNL1        0.0516
     28 C          59.5879   95.2601   -5.9944 C.ar    1  UNL1        0.0147
     29 C          59.3001   94.6426   -7.3308 C.ar    1  UNL1        0.0013
     30 C          58.3636   93.4752   -7.4314 C.ar    1  UNL1        0.0016
     31 C          57.7150   92.9253   -6.1958 C.ar    1  UNL1        0.0204
     32 C          56.7785   91.7579   -6.2964 C.ar    1  UNL1        0.0984
     33 N          56.1299   91.2080   -5.0607 N.ar    1  UNL1       -0.2481
@<TRIPOS>BOND
     1    23    24    1
     2    24    25   ar
     3    25    26   ar
     4    26    27   ar
     5    27     1    1
     6     1     2   am
     7     2     3    2
     8     2     4   am
     9     7     4    1
    10     7     8    1
    11     8     9    1
    12     9    10    1
    13     9    11    1
    14     9    12    1
    15    12    13    1
    16    13    14   ar
    17    14    15   ar
    18    15    19    1
    19    19    20    1
    20    19    21    1
    21    19    22    1
    22    15    16   ar
    23    16    17   ar
    24    17    18   ar
    25    27    28   ar
    26    28    29   ar
    27    29    30   ar
    28    30    31   ar
    29    31    32   ar
    30    32    33   ar
    31    33    24   ar
    32    31    26   ar
    33    18     7    1
    34    18    13   ar
    35     1     5    1
    36     4     6    1
@<TRIPOS>MOLECULE
*****
 33 36 0 0 0
SMALL
GASTEIGER

@<TRIPOS>ATOM
      1 N          61.7572   89.7365   12.4297 N.am    1  UNL1       -0.2683
      2 C          63.1005   90.4020   12.4819 C.2     1  UNL1        0.3047
      3 O          64.0624   90.2402   11.3424 O.2     1  UNL1       -0.2525
      4 N          63.4817   91.2294   13.6736 N.am    1  UNL1       -0.2863
      5 H          61.1258   89.8427   13.1776 H       1  UNL1        0.1564
      6 H          62.8504   91.3356   14.4215 H       1  UNL1        0.1512
      7 C          64.8250   91.8949   13.7257 C.3     1  UNL1        0.1019
      8 C          65.6264   91.8684   14.9934 C.3     1  UNL1        0.0642
      9 C          66.9697   92.5339   15.0455 C.3     1  UNL1        0.1352
     10 C          68.2832   93.0174   15.5850 C.3     1  UNL1        0.0437
     11 C          66.8841   92.0098   16.4484 C.3     1  UNL1        0.0437
     12 O          67.5115   93.2260   13.8300 O.3     1  UNL1       -0.4828
     13 C          66.7101   93.2525   12.5624 C.ar    1  UNL1        0.1357
     14 C          67.2519   93.9445   11.3469 C.ar    1  UNL1        0.0405
     15 C          66.4505   93.9710   10.0792 C.ar    1  UNL1        0.0744
     16 C          65.1072   93.3055   10.0270 C.ar    1  UNL1        0.0038
     17 C          64.5654   92.6135   11.2425 C.ar    1  UNL1        0.0003
     18 C          65.3669   92.5870   12.5102 C.ar    1  UNL1        0.0296
     19 C          66.9923   94.6631    8.8636 C.3     1  UNL1        0.4187
     20 F          67.5342   95.3551    7.6481 F       1  UNL1       -0.1659
     21 F          66.1038   95.8401    9.1376 F       1  UNL1       -0.1659
     22 F          67.8809   93.4861    8.5897 F       1  UNL1       -0.1659
     23 C          63.8080   84.8095   13.3063 C.3     1  UNL1        0.0521
     24 C          63.0094   85.4207   12.1934 C.ar    1  UNL1        0.0594
     25 C          62.5920   86.8593   12.2721 C.ar    1  UNL1        0.0160
     26 C          61.7933   87.4705   11.1592 C.ar    1  UNL1        0.0162
     27 C          61.3759   88.9091   11.2381 C.ar    1  UNL1        0.0516
     28 C          60.5772   89.5204   10.1252 C.ar    1  UNL1        0.0147
     29 C          60.1960   88.6929    8.9335 C.ar    1  UNL1        0.0013
     30 C          60.6134   87.2544    8.8547 C.ar    1  UNL1        0.0016
     31 C          61.4120   86.6431    9.9676 C.ar    1  UNL1        0.0204
     32 C          61.8294   85.2046    9.8888 C.ar    1  UNL1        0.0984
     33 N          62.6281   84.5933   11.0017 N.ar    1  UNL1       -0.2481
@<TRIPOS>BOND
     1    23    24    1
     2    24    25   ar
     3    25    26   ar
     4    26    27   ar
     5    27     1    1
     6     1     2   am
     7     2     3    2
     8     2     4   am
     9     7     4    1
    10     7     8    1
    11     8     9    1
    12     9    10    1
    13     9    11    1
    14     9    12    1
    15    12    13    1
    16    13    14   ar
    17    14    15   ar
    18    15    19    1
    19    19    20    1
    20    19    21    1
    21    19    22    1
    22    15    16   ar
    23    16    17   ar
    24    17    18   ar
    25    27    28   ar
    26    28    29   ar
    27    29    30   ar
    28    30    31   ar
    29    31    32   ar
    30    32    33   ar
    31    33    24   ar
    32    31    26   ar
    33    18     7    1
    34    18    13   ar
    35     1     5    1
    36     4     6    1
@<TRIPOS>MOLECULE
*****
 33 36 0 0 0
SMALL
GASTEIGER

@<TRIPOS>ATOM
      1 N          60.1885   94.0352    1.2233 N.am    1  UNL1       -0.2683
      2 C          60.0052   93.7650   -0.2408 C.2     1  UNL1        0.3047
      3 O          60.7254   92.6194   -0.8879 O.2     1  UNL1       -0.2525
      4 N          59.1018   94.6405   -1.0577 N.am    1  UNL1       -0.2863
      5 H          59.7159   94.7872    1.6481 H       1  UNL1        0.1564
      6 H          58.6292   95.3925   -0.6329 H       1  UNL1        0.1512
      7 C          58.9186   94.3703   -2.5217 C.3     1  UNL1        0.1019
      8 C          59.7071   95.1490   -3.5325 C.3     1  UNL1        0.0642
      9 C          59.5238   94.8788   -4.9966 C.3     1  UNL1        0.1352
     10 C          59.6993   94.9858   -6.4824 C.3     1  UNL1        0.0437
     11 C          60.5565   95.9649   -5.0595 C.3     1  UNL1        0.0437
     12 O          58.5521   93.8299   -5.4498 O.3     1  UNL1       -0.4828
     13 C          57.7635   93.0511   -4.4389 C.ar    1  UNL1        0.1357
     14 C          56.7918   92.0022   -4.8921 C.ar    1  UNL1        0.0405
     15 C          56.0033   91.2235   -3.8812 C.ar    1  UNL1        0.0744
     16 C          56.1865   91.4937   -2.4172 C.ar    1  UNL1        0.0038
     17 C          57.1583   92.5426   -1.9640 C.ar    1  UNL1        0.0003
     18 C          57.9468   93.3213   -2.9749 C.ar    1  UNL1        0.0296
     19 C          55.0315   90.1745   -4.3344 C.3     1  UNL1        0.4187
     20 F          54.0597   89.1256   -4.7877 F       1  UNL1       -0.1659
     21 F          55.1929   89.4595   -3.0258 F       1  UNL1       -0.1659
     22 F          54.8700   90.8896   -5.6431 F       1  UNL1       -0.1659
     23 C          57.0445   91.7028    4.9549 C.3     1  UNL1        0.0521
     24 C          58.5080   91.6293    4.6347 C.ar    1  UNL1        0.0594
     25 C          59.0682   92.4312    3.4976 C.ar    1  UNL1        0.0160
     26 C          60.5318   92.3577    3.1773 C.ar    1  UNL1        0.0162
     27 C          61.0919   93.1597    2.0402 C.ar    1  UNL1        0.0516
     28 C          62.5555   93.0862    1.7200 C.ar    1  UNL1        0.0147
     29 C          63.4589   92.2106    2.5369 C.ar    1  UNL1        0.0013
     30 C          62.8988   91.4087    3.6740 C.ar    1  UNL1        0.0016
     31 C          61.4352   91.4822    3.9942 C.ar    1  UNL1        0.0204
     32 C          60.8750   90.6803    5.1313 C.ar    1  UNL1        0.0984
     33 N          59.4115   90.7538    5.4515 N.ar    1  UNL1       -0.2481
@<TRIPOS>BOND
     1    23    24    1
     2    24    25   ar
     3    25    26   ar
     4    26    27   ar
     5    27     1    1
     6     1     2   am
     7     2     3    2
     8     2     4   am
     9     7     4    1
    10     7     8    1
    11     8     9    1
    12     9    10    1
    13     9    11    1
    14     9    12    1
    15    12    13    1
    16    13    14   ar
    17    14    15   ar
    18    15    19    1
    19    19    20    1
    20    19    21    1
    21    19    22    1
    22    15    16   ar
    23    16    17   ar
    24    17    18   ar
    25    27    28   ar
    26    28    29   ar
    27    29    30   ar
    28    30    31   ar
    29    31    32   ar
    30    32    33   ar
    31    33    24   ar
    32    31    26   ar
    33    18     7    1
    34    18    13   ar
    35     1     5    1
    36     4     6    1
@<TRIPOS>MOLECULE
*****
 33 36 0 0 0
SMALL
GASTEIGER

@<TRIPOS>ATOM
      1 N          60.1676   94.4437    0.3117 N.am    1  UNL1       -0.2683
      2 C          59.8901   94.0519   -1.1094 C.2     1  UNL1        0.3047
      3 O          60.7370   93.0108   -1.7794 O.2     1  UNL1       -0.2525
      4 N          58.7658   94.7012   -1.8605 N.am    1  UNL1       -0.2863
      5 H          59.6118   95.1270    0.7514 H       1  UNL1        0.1564
      6 H          58.2099   95.3845   -1.4208 H       1  UNL1        0.1512
      7 C          58.4883   94.3094   -3.2816 C.3     1  UNL1        0.1019
      8 C          59.1537   95.0458   -4.4062 C.3     1  UNL1        0.0642
      9 C          58.8762   94.6539   -5.8273 C.3     1  UNL1        0.1352
     10 C          58.9331   94.6540   -7.3262 C.3     1  UNL1        0.0437
     11 C          59.8389   95.7823   -6.0515 C.3     1  UNL1        0.0437
     12 O          57.9333   93.5257   -6.1238 O.3     1  UNL1       -0.4828
     13 C          57.2679   92.7892   -4.9991 C.ar    1  UNL1        0.1357
     14 C          56.3250   91.6610   -5.2955 C.ar    1  UNL1        0.0405
     15 C          55.6595   90.9245   -4.1709 C.ar    1  UNL1        0.0744
     16 C          55.9370   91.3163   -2.7498 C.ar    1  UNL1        0.0038
     17 C          56.8799   92.4446   -2.4534 C.ar    1  UNL1        0.0003
     18 C          57.5453   93.1811   -3.5781 C.ar    1  UNL1        0.0296
     19 C          54.7166   89.7962   -4.4674 C.3     1  UNL1        0.4187
     20 F          53.7737   88.6679   -4.7638 F       1  UNL1       -0.1659
     21 F          54.4198   90.3968   -5.8094 F       1  UNL1       -0.1659
     22 F          55.0133   89.1956   -3.1253 F       1  UNL1       -0.1659
     23 C          64.7289   96.4874   -1.7542 C.3     1  UNL1        0.0521
     24 C          64.4319   95.4895   -0.6744 C.ar    1  UNL1        0.0594
     25 C          63.0105   95.1409   -0.3457 C.ar    1  UNL1        0.0160
     26 C          62.7135   94.1430    0.7341 C.ar    1  UNL1        0.0162
     27 C          61.2920   93.7944    1.0628 C.ar    1  UNL1        0.0516
     28 C          60.9950   92.7965    2.1426 C.ar    1  UNL1        0.0147
     29 C          62.1194   92.1472    2.8937 C.ar    1  UNL1        0.0013
     30 C          63.5408   92.4958    2.5650 C.ar    1  UNL1        0.0016
     31 C          63.8378   93.4937    1.4852 C.ar    1  UNL1        0.0204
     32 C          65.2592   93.8423    1.1565 C.ar    1  UNL1        0.0984
     33 N          65.5562   94.8402    0.0767 N.ar    1  UNL1       -0.2481
@<TRIPOS>BOND
     1    23    24    1
     2    24    25   ar
     3    25    26   ar
     4    26    27   ar
     5    27     1    1
     6     1     2   am
     7     2     3    2
     8     2     4   am
     9     7     4    1
    10     7     8    1
    11     8     9    1
    12     9    10    1
    13     9    11    1
    14     9    12    1
    15    12    13    1
    16    13    14   ar
    17    14    15   ar
    18    15    19    1
    19    19    20    1
    20    19    21    1
    21    19    22    1
    22    15    16   ar
    23    16    17   ar
    24    17    18   ar
    25    27    28   ar
    26    28    29   ar
    27    29    30   ar
    28    30    31   ar
    29    31    32   ar
    30    32    33   ar
    31    33    24   ar
    32    31    26   ar
    33    18     7    1
    34    18    13   ar
    35     1     5    1
    36     4     6    1
