@<TRIPOS>MOLECULE
*****
 31 34 0 0 0
SMALL
GASTEIGER

@<TRIPOS>ATOM
      1 N          61.5611   88.8320   11.8238 N.am    1  UNL1       -0.2863
      2 C          62.7236   89.3758   12.6001 C.2     1  UNL1        0.3047
      3 O          63.9832   88.5711   12.7268 O.2     1  UNL1       -0.2525
      4 N          62.6268   90.7244   13.2497 N.am    1  UNL1       -0.2683
      5 H          60.7344   89.3602   11.7407 H       1  UNL1        0.1512
      6 H          61.8001   91.2526   13.1666 H       1  UNL1        0.1564
      7 C          62.4955   85.0243   11.2087 C.3     1  UNL1        0.1350
      8 C          62.3986   86.3729   11.8583 C.3     1  UNL1        0.0642
      9 C          61.6580   87.4835   11.1742 C.3     1  UNL1        0.1020
     10 C          61.0142   87.2455    9.8404 C.ar    1  UNL1        0.0319
     11 C          60.2736   88.3561    9.1562 C.ar    1  UNL1        0.0300
     12 C          59.6299   88.1181    7.8225 C.ar    1  UNL1        0.1401
     13 F          58.8892   89.2287    7.1383 F       1  UNL1       -0.2042
     14 C          59.7268   86.7695    7.1728 C.ar    1  UNL1        0.0327
     15 C          60.4674   85.6590    7.8570 C.ar    1  UNL1        0.0389
     16 C          61.1111   85.8970    9.1907 C.ar    1  UNL1        0.1358
     17 O          61.8518   84.7863    9.8749 O.3     1  UNL1       -0.4828
     18 C          63.9712   83.2231   10.0563 C.3     1  UNL1        0.0037
     19 C          62.8599   83.5848   10.9967 C.3     1  UNL1        0.0401
     20 C          63.2658   84.7624   12.4689 C.3     1  UNL1        0.0401
     21 C          62.7305   83.8017   13.4891 C.3     1  UNL1        0.0037
     22 C          63.7894   91.2682   14.0260 C.ar    1  UNL1        0.0516
     23 C          63.8056   91.1662   15.5224 C.ar    1  UNL1        0.0147
     24 C          64.9682   91.7100   16.2987 C.ar    1  UNL1        0.0013
     25 C          66.1146   92.3557   15.5785 C.ar    1  UNL1        0.0016
     26 C          66.0985   92.4577   14.0821 C.ar    1  UNL1        0.0204
     27 C          67.2449   93.1035   13.3619 C.ar    1  UNL1        0.0989
     28 N          67.2287   93.2055   11.8655 N.ar    1  UNL1       -0.2423
     29 C          66.0661   92.6617   11.0892 C.ar    1  UNL1        0.0989
     30 C          64.9196   92.0159   11.8094 C.ar    1  UNL1        0.0219
     31 C          64.9359   91.9139   13.3059 C.ar    1  UNL1        0.0166
@<TRIPOS>BOND
     1    18    19    1
     2    19     7    1
     3     7    20    1
     4    20    21    1
     5     7     8    1
     6     8     9    1
     7     9     1    1
     8     1     2   am
     9     2     3    2
    10     2     4   am
    11     4    22    1
    12    22    23   ar
    13    23    24   ar
    14    24    25   ar
    15    25    26   ar
    16    26    27   ar
    17    27    28   ar
    18    28    29   ar
    19    29    30   ar
    20    30    31   ar
    21     9    10    1
    22    10    11   ar
    23    11    12   ar
    24    12    13    1
    25    12    14   ar
    26    14    15   ar
    27    15    16   ar
    28    16    17    1
    29    17     7    1
    30    31    22   ar
    31    16    10   ar
    32    31    26   ar
    33     1     5    1
    34     4     6    1
@<TRIPOS>MOLECULE
*****
 31 34 0 0 0
SMALL
GASTEIGER

@<TRIPOS>ATOM
      1 N          61.9834   88.7407   12.1610 N.am    1  UNL1       -0.2863
      2 C          63.0364   89.7654   11.8591 C.2     1  UNL1        0.3047
      3 O          63.8166   89.6850   10.5804 O.2     1  UNL1       -0.2525
      4 N          63.3093   90.8707   12.8358 N.am    1  UNL1       -0.2683
      5 H          61.4714   88.7936   13.0002 H       1  UNL1        0.1512
      6 H          62.7972   90.9235   13.6751 H       1  UNL1        0.1564
      7 C          60.5927   86.7917    8.9960 C.3     1  UNL1        0.1350
      8 C          60.8656   87.8969    9.9728 C.3     1  UNL1        0.0642
      9 C          61.7105   87.6355   11.1842 C.3     1  UNL1        0.1020
     10 C          62.2827   86.2689   11.4190 C.ar    1  UNL1        0.0319
     11 C          63.1277   86.0076   12.6304 C.ar    1  UNL1        0.0300
     12 C          63.6998   84.6410   12.8651 C.ar    1  UNL1        0.1401
     13 F          64.5449   84.3796   14.0766 F       1  UNL1       -0.2042
     14 C          63.4270   83.5358   11.8884 C.ar    1  UNL1        0.0327
     15 C          62.5820   83.7971   10.6769 C.ar    1  UNL1        0.0389
     16 C          62.0099   85.1637   10.4422 C.ar    1  UNL1        0.1358
     17 O          61.1648   85.4251    9.2307 O.3     1  UNL1       -0.4828
     18 C          60.9696   85.2299    6.9542 C.3     1  UNL1        0.0037
     19 C          60.0565   86.0746    7.7927 C.3     1  UNL1        0.0401
     20 C          59.8343   87.9092    8.3434 C.3     1  UNL1        0.0401
     21 C          60.1002   89.3301    8.7438 C.3     1  UNL1        0.0037
     22 C          64.3623   91.8954   12.5339 C.ar    1  UNL1        0.0516
     23 C          64.4749   92.4708   11.1533 C.ar    1  UNL1        0.0147
     24 C          65.5279   93.4955   10.8514 C.ar    1  UNL1        0.0013
     25 C          66.4683   93.9448   11.9302 C.ar    1  UNL1        0.0016
     26 C          66.3558   93.3694   13.3108 C.ar    1  UNL1        0.0204
     27 C          67.2962   93.8186   14.3896 C.ar    1  UNL1        0.0989
     28 N          67.1836   93.2432   15.7702 N.ar    1  UNL1       -0.2423
     29 C          66.1306   92.2185   16.0721 C.ar    1  UNL1        0.0989
     30 C          65.1901   91.7692   14.9934 C.ar    1  UNL1        0.0219
     31 C          65.3028   92.3447   13.6127 C.ar    1  UNL1        0.0166
@<TRIPOS>BOND
     1    18    19    1
     2    19     7    1
     3     7    20    1
     4    20    21    1
     5     7     8    1
     6     8     9    1
     7     9     1    1
     8     1     2   am
     9     2     3    2
    10     2     4   am
    11     4    22    1
    12    22    23   ar
    13    23    24   ar
    14    24    25   ar
    15    25    26   ar
    16    26    27   ar
    17    27    28   ar
    18    28    29   ar
    19    29    30   ar
    20    30    31   ar
    21     9    10    1
    22    10    11   ar
    23    11    12   ar
    24    12    13    1
    25    12    14   ar
    26    14    15   ar
    27    15    16   ar
    28    16    17    1
    29    17     7    1
    30    31    22   ar
    31    16    10   ar
    32    31    26   ar
    33     1     5    1
    34     4     6    1
@<TRIPOS>MOLECULE
*****
 31 34 0 0 0
SMALL
GASTEIGER

@<TRIPOS>ATOM
      1 N          63.4941   84.1919   10.5457 N.am    1  UNL1       -0.2863
      2 C          62.4381   85.2198   10.2661 C.2     1  UNL1        0.3047
      3 O          61.2938   85.3981   11.2195 O.2     1  UNL1       -0.2525
      4 N          62.5264   86.0695    9.0331 N.am    1  UNL1       -0.2683
      5 H          64.2451   84.0749    9.9200 H       1  UNL1        0.1512
      6 H          63.2774   85.9526    8.4074 H       1  UNL1        0.1564
      7 C          62.9809   81.0354   12.8958 C.3     1  UNL1        0.1350
      8 C          63.0691   81.8851   11.6628 C.3     1  UNL1        0.0642
      9 C          63.4058   83.3422   11.7787 C.3     1  UNL1        0.1020
     10 C          63.6543   83.9496   13.1275 C.ar    1  UNL1        0.0319
     11 C          63.9910   85.4067   13.2434 C.ar    1  UNL1        0.0300
     12 C          64.2395   86.0141   14.5922 C.ar    1  UNL1        0.1401
     13 F          64.5762   87.4713   14.7081 F       1  UNL1       -0.2042
     14 C          64.1512   85.1644   15.8251 C.ar    1  UNL1        0.0327
     15 C          63.8145   83.7073   15.7093 C.ar    1  UNL1        0.0389
     16 C          63.5661   83.0999   14.3605 C.ar    1  UNL1        0.1358
     17 O          63.2293   81.6428   14.2446 O.3     1  UNL1       -0.4828
     18 C          61.3987   79.4194   14.1746 C.3     1  UNL1        0.0037
     19 C          62.7824   79.8293   13.7652 C.3     1  UNL1        0.0401
     20 C          62.6635   80.0091   11.8489 C.3     1  UNL1        0.0401
     21 C          63.0060   80.2724   10.4124 C.3     1  UNL1        0.0037
     22 C          61.4703   87.0975    8.7535 C.ar    1  UNL1        0.0516
     23 C          60.4911   86.8826    7.6378 C.ar    1  UNL1        0.0147
     24 C          59.4352   87.9105    7.3583 C.ar    1  UNL1        0.0013
     25 C          59.3583   89.1534    8.1945 C.ar    1  UNL1        0.0016
     26 C          60.3375   89.3684    9.3102 C.ar    1  UNL1        0.0204
     27 C          60.2607   90.6113   10.1464 C.ar    1  UNL1        0.0989
     28 N          61.2399   90.8263   11.2622 N.ar    1  UNL1       -0.2423
     29 C          62.2959   89.7983   11.5418 C.ar    1  UNL1        0.0989
     30 C          62.3728   88.5554   10.7056 C.ar    1  UNL1        0.0219
     31 C          61.3935   88.3404    9.5898 C.ar    1  UNL1        0.0166
@<TRIPOS>BOND
     1    18    19    1
     2    19     7    1
     3     7    20    1
     4    20    21    1
     5     7     8    1
     6     8     9    1
     7     9     1    1
     8     1     2   am
     9     2     3    2
    10     2     4   am
    11     4    22    1
    12    22    23   ar
    13    23    24   ar
    14    24    25   ar
    15    25    26   ar
    16    26    27   ar
    17    27    28   ar
    18    28    29   ar
    19    29    30   ar
    20    30    31   ar
    21     9    10    1
    22    10    11   ar
    23    11    12   ar
    24    12    13    1
    25    12    14   ar
    26    14    15   ar
    27    15    16   ar
    28    16    17    1
    29    17     7    1
    30    31    22   ar
    31    16    10   ar
    32    31    26   ar
    33     1     5    1
    34     4     6    1
@<TRIPOS>MOLECULE
*****
 31 34 0 0 0
SMALL
GASTEIGER

@<TRIPOS>ATOM
      1 N          61.2841   88.4837   11.9680 N.am    1  UNL1       -0.2863
      2 C          62.5136   89.1964   12.4477 C.2     1  UNL1        0.3047
      3 O          63.8617   88.8052   11.9188 O.2     1  UNL1       -0.2525
      4 N          62.3952   90.3004   13.4562 N.am    1  UNL1       -0.2683
      5 H          60.3993   88.7405   12.3151 H       1  UNL1        0.1512
      6 H          61.5104   90.5572   13.8033 H       1  UNL1        0.1564
      7 C          60.8569   86.4081    8.6125 C.3     1  UNL1        0.1350
      8 C          60.7384   87.5121    9.6210 C.3     1  UNL1        0.0642
      9 C          61.4025   87.3797   10.9594 C.3     1  UNL1        0.1020
     10 C          62.1852   86.1433   11.2894 C.ar    1  UNL1        0.0319
     11 C          62.8492   86.0108   12.6278 C.ar    1  UNL1        0.0300
     12 C          63.6318   84.7744   12.9576 C.ar    1  UNL1        0.1401
     13 F          64.2960   84.6420   14.2961 F       1  UNL1       -0.2042
     14 C          63.7503   83.6704   11.9491 C.ar    1  UNL1        0.0327
     15 C          63.0862   83.8029   10.6107 C.ar    1  UNL1        0.0389
     16 C          62.3036   85.0393   10.2808 C.ar    1  UNL1        0.1358
     17 O          61.6395   85.1717    8.9423 O.3     1  UNL1       -0.4828
     18 C          61.8416   84.8937    6.7451 C.3     1  UNL1        0.0037
     19 C          60.6826   85.6410    7.3353 C.3     1  UNL1        0.0401
     20 C          60.0138   87.3782    7.8390 C.3     1  UNL1        0.0401
     21 C          59.9126   88.8064    8.2861 C.3     1  UNL1        0.0037
     22 C          63.6248   91.0132   13.9359 C.ar    1  UNL1        0.0516
     23 C          63.9853   90.9899   15.3917 C.ar    1  UNL1        0.0147
     24 C          65.2149   91.7026   15.8713 C.ar    1  UNL1        0.0013
     25 C          66.0840   92.4386   14.8951 C.ar    1  UNL1        0.0016
     26 C          65.7235   92.4619   13.4393 C.ar    1  UNL1        0.0204
     27 C          66.5926   93.1979   12.4631 C.ar    1  UNL1        0.0989
     28 N          66.2321   93.2212   11.0073 N.ar    1  UNL1       -0.2423
     29 C          65.0025   92.5084   10.5276 C.ar    1  UNL1        0.0989
     30 C          64.1334   91.7724   11.5038 C.ar    1  UNL1        0.0219
     31 C          64.4939   91.7492   12.9597 C.ar    1  UNL1        0.0166
@<TRIPOS>BOND
     1    18    19    1
     2    19     7    1
     3     7    20    1
     4    20    21    1
     5     7     8    1
     6     8     9    1
     7     9     1    1
     8     1     2   am
     9     2     3    2
    10     2     4   am
    11     4    22    1
    12    22    23   ar
    13    23    24   ar
    14    24    25   ar
    15    25    26   ar
    16    26    27   ar
    17    27    28   ar
    18    28    29   ar
    19    29    30   ar
    20    30    31   ar
    21     9    10    1
    22    10    11   ar
    23    11    12   ar
    24    12    13    1
    25    12    14   ar
    26    14    15   ar
    27    15    16   ar
    28    16    17    1
    29    17     7    1
    30    31    22   ar
    31    16    10   ar
    32    31    26   ar
    33     1     5    1
    34     4     6    1
@<TRIPOS>MOLECULE
*****
 31 34 0 0 0
SMALL
GASTEIGER

@<TRIPOS>ATOM
      1 N          63.4318   84.4074   11.0881 N.am    1  UNL1       -0.2863
      2 C          62.3604   85.3334   10.5939 C.2     1  UNL1        0.3047
      3 O          61.2830   85.8001   11.5275 O.2     1  UNL1       -0.2525
      4 N          62.3662   85.7929    9.1660 N.am    1  UNL1       -0.2683
      5 H          64.1389   84.1011   10.4754 H       1  UNL1        0.1512
      6 H          63.0732   85.4866    8.5532 H       1  UNL1        0.1564
      7 C          63.6355   84.4776   15.0509 C.3     1  UNL1        0.1350
      8 C          63.6413   84.9370   13.6230 C.3     1  UNL1        0.0642
      9 C          63.4260   83.9480   12.5160 C.3     1  UNL1        0.1020
     10 C          63.2050   82.4994   12.8370 C.ar    1  UNL1        0.0319
     11 C          62.9897   81.5104   11.7300 C.ar    1  UNL1        0.0300
     12 C          62.7687   80.0619   12.0510 C.ar    1  UNL1        0.1401
     13 F          62.5534   79.0728   10.9440 F       1  UNL1       -0.2042
     14 C          62.7629   79.6025   13.4789 C.ar    1  UNL1        0.0327
     15 C          62.9781   80.5916   14.5858 C.ar    1  UNL1        0.0389
     16 C          63.1992   82.0400   14.2649 C.ar    1  UNL1        0.1358
     17 O          63.4145   83.0292   15.3718 O.3     1  UNL1       -0.4828
     18 C          63.1250   85.6873   17.2928 C.3     1  UNL1        0.0037
     19 C          63.7162   84.5272   16.5479 C.3     1  UNL1        0.0401
     20 C          63.8846   85.9434   15.2498 C.3     1  UNL1        0.0401
     21 C          64.2476   86.8081   14.0791 C.3     1  UNL1        0.0037
     22 C          61.2946   86.7190    8.6717 C.ar    1  UNL1        0.0516
     23 C          60.3738   86.2812    7.5715 C.ar    1  UNL1        0.0147
     24 C          59.3024   87.2073    7.0773 C.ar    1  UNL1        0.0013
     25 C          59.1517   88.5711    7.6833 C.ar    1  UNL1        0.0016
     26 C          60.0725   89.0089    8.7835 C.ar    1  UNL1        0.0204
     27 C          59.9218   90.3727    9.3895 C.ar    1  UNL1        0.0989
     28 N          60.8426   90.8105   10.4897 N.ar    1  UNL1       -0.2423
     29 C          61.9141   89.8844   10.9840 C.ar    1  UNL1        0.0989
     30 C          62.0648   88.5205   10.3780 C.ar    1  UNL1        0.0219
     31 C          61.1439   88.0828    9.2777 C.ar    1  UNL1        0.0166
@<TRIPOS>BOND
     1    18    19    1
     2    19     7    1
     3     7    20    1
     4    20    21    1
     5     7     8    1
     6     8     9    1
     7     9     1    1
     8     1     2   am
     9     2     3    2
    10     2     4   am
    11     4    22    1
    12    22    23   ar
    13    23    24   ar
    14    24    25   ar
    15    25    26   ar
    16    26    27   ar
    17    27    28   ar
    18    28    29   ar
    19    29    30   ar
    20    30    31   ar
    21     9    10    1
    22    10    11   ar
    23    11    12   ar
    24    12    13    1
    25    12    14   ar
    26    14    15   ar
    27    15    16   ar
    28    16    17    1
    29    17     7    1
    30    31    22   ar
    31    16    10   ar
    32    31    26   ar
    33     1     5    1
    34     4     6    1
@<TRIPOS>MOLECULE
*****
 31 34 0 0 0
SMALL
GASTEIGER

@<TRIPOS>ATOM
      1 N          62.4290   87.1358   12.0147 N.am    1  UNL1       -0.2863
      2 C          63.2850   88.0934   12.7893 C.2     1  UNL1        0.3047
      3 O          64.5047   87.5968   13.5077 O.2     1  UNL1       -0.2525
      4 N          62.9215   89.5476   12.8456 N.am    1  UNL1       -0.2683
      5 H          61.6285   87.4617   11.5432 H       1  UNL1        0.1512
      6 H          62.1210   89.8735   12.3742 H       1  UNL1        0.1564
      7 C          63.5102   83.5931   10.5897 C.3     1  UNL1        0.1350
      8 C          63.1466   85.0473   10.6460 C.3     1  UNL1        0.0642
      9 C          62.7925   85.6816   11.9583 C.3     1  UNL1        0.1020
     10 C          62.8020   84.8616   13.2144 C.ar    1  UNL1        0.0319
     11 C          62.4479   85.4959   14.5268 C.ar    1  UNL1        0.0300
     12 C          62.4573   84.6760   15.7828 C.ar    1  UNL1        0.1401
     13 F          62.1032   85.3103   17.0952 F       1  UNL1       -0.2042
     14 C          62.8209   83.2218   15.7265 C.ar    1  UNL1        0.0327
     15 C          63.1750   82.5875   14.4141 C.ar    1  UNL1        0.0389
     16 C          63.1655   83.4075   13.1581 C.ar    1  UNL1        0.1358
     17 O          63.5196   82.7732   11.8457 O.3     1  UNL1       -0.4828
     18 C          63.1988   81.0174   10.4517 C.3     1  UNL1        0.0037
     19 C          63.9198   82.2633   10.0296 C.3     1  UNL1        0.0401
     20 C          63.6430   83.9512    9.1391 C.3     1  UNL1        0.0401
     21 C          63.0450   85.2267    8.6237 C.3     1  UNL1        0.0037
     22 C          63.7776   90.5052   13.6203 C.ar    1  UNL1        0.0516
     23 C          63.8173   90.4329   15.1180 C.ar    1  UNL1        0.0147
     24 C          64.6734   91.3905   15.8927 C.ar    1  UNL1        0.0013
     25 C          65.4897   92.4204   15.1696 C.ar    1  UNL1        0.0016
     26 C          65.4500   92.4928   13.6719 C.ar    1  UNL1        0.0204
     27 C          66.2663   93.5227   12.9488 C.ar    1  UNL1        0.0989
     28 N          66.2266   93.5950   11.4511 N.ar    1  UNL1       -0.2423
     29 C          65.3705   92.6374   10.6764 C.ar    1  UNL1        0.0989
     30 C          64.5541   91.6075   11.3995 C.ar    1  UNL1        0.0219
     31 C          64.5939   91.5352   12.8973 C.ar    1  UNL1        0.0166
@<TRIPOS>BOND
     1    18    19    1
     2    19     7    1
     3     7    20    1
     4    20    21    1
     5     7     8    1
     6     8     9    1
     7     9     1    1
     8     1     2   am
     9     2     3    2
    10     2     4   am
    11     4    22    1
    12    22    23   ar
    13    23    24   ar
    14    24    25   ar
    15    25    26   ar
    16    26    27   ar
    17    27    28   ar
    18    28    29   ar
    19    29    30   ar
    20    30    31   ar
    21     9    10    1
    22    10    11   ar
    23    11    12   ar
    24    12    13    1
    25    12    14   ar
    26    14    15   ar
    27    15    16   ar
    28    16    17    1
    29    17     7    1
    30    31    22   ar
    31    16    10   ar
    32    31    26   ar
    33     1     5    1
    34     4     6    1
@<TRIPOS>MOLECULE
*****
 31 34 0 0 0
SMALL
GASTEIGER

@<TRIPOS>ATOM
      1 N          62.5697   86.0860    9.5129 N.am    1  UNL1       -0.2863
      2 C          62.3552   85.2733   10.7552 C.2     1  UNL1        0.3047
      3 O          61.3322   85.7024   11.7649 O.2     1  UNL1       -0.2525
      4 N          63.1636   84.0314   10.9879 N.am    1  UNL1       -0.2683
      5 H          63.2411   85.8043    8.8503 H       1  UNL1        0.1512
      6 H          63.8350   83.7497   10.3253 H       1  UNL1        0.1564
      7 C          59.9208   88.6000    7.9595 C.3     1  UNL1        0.1350
      8 C          60.7292   87.3581    8.1922 C.3     1  UNL1        0.0642
      9 C          61.7613   87.3279    9.2802 C.3     1  UNL1        0.1020
     10 C          61.9849   88.5397   10.1356 C.ar    1  UNL1        0.0319
     11 C          63.0170   88.5095   11.2237 C.ar    1  UNL1        0.0300
     12 C          63.2406   89.7212   12.0791 C.ar    1  UNL1        0.1401
     13 F          64.2727   89.6911   13.1672 F       1  UNL1       -0.2042
     14 C          62.4322   90.9631   11.8464 C.ar    1  UNL1        0.0327
     15 C          61.4001   90.9933   10.7583 C.ar    1  UNL1        0.0389
     16 C          61.1765   89.7816    9.9029 C.ar    1  UNL1        0.1358
     17 O          60.1444   89.8117    8.8148 O.3     1  UNL1       -0.4828
     18 C          59.1192   90.0659    5.9698 C.3     1  UNL1        0.0037
     19 C          58.9132   89.5336    7.3571 C.3     1  UNL1        0.0401
     20 C          59.3472   87.7125    6.8949 C.3     1  UNL1        0.0401
     21 C          59.2338   86.2354    7.1306 C.3     1  UNL1        0.0037
     22 C          62.9490   83.2186   12.2303 C.ar    1  UNL1        0.0516
     23 C          62.4267   81.8163   12.1283 C.ar    1  UNL1        0.0147
     24 C          62.2121   81.0036   13.3706 C.ar    1  UNL1        0.0013
     25 C          62.5199   81.5933   14.7151 C.ar    1  UNL1        0.0016
     26 C          63.0423   82.9957   14.8171 C.ar    1  UNL1        0.0204
     27 C          63.3500   83.5854   16.1616 C.ar    1  UNL1        0.0989
     28 N          63.8724   84.9878   16.2637 N.ar    1  UNL1       -0.2423
     29 C          64.0869   85.8005   15.0213 C.ar    1  UNL1        0.0989
     30 C          63.7792   85.2108   13.6768 C.ar    1  UNL1        0.0219
     31 C          63.2568   83.8083   13.5748 C.ar    1  UNL1        0.0166
@<TRIPOS>BOND
     1    18    19    1
     2    19     7    1
     3     7    20    1
     4    20    21    1
     5     7     8    1
     6     8     9    1
     7     9     1    1
     8     1     2   am
     9     2     3    2
    10     2     4   am
    11     4    22    1
    12    22    23   ar
    13    23    24   ar
    14    24    25   ar
    15    25    26   ar
    16    26    27   ar
    17    27    28   ar
    18    28    29   ar
    19    29    30   ar
    20    30    31   ar
    21     9    10    1
    22    10    11   ar
    23    11    12   ar
    24    12    13    1
    25    12    14   ar
    26    14    15   ar
    27    15    16   ar
    28    16    17    1
    29    17     7    1
    30    31    22   ar
    31    16    10   ar
    32    31    26   ar
    33     1     5    1
    34     4     6    1
@<TRIPOS>MOLECULE
*****
 31 34 0 0 0
SMALL
GASTEIGER

@<TRIPOS>ATOM
      1 N          61.8858   88.7962   12.0779 N.am    1  UNL1       -0.2863
      2 C          63.0251   89.7423   11.8395 C.2     1  UNL1        0.3047
      3 O          64.1100   89.3804   10.8687 O.2     1  UNL1       -0.2525
      4 N          63.0796   91.0503   12.5717 N.am    1  UNL1       -0.2683
      5 H          61.1738   89.0337   12.7150 H       1  UNL1        0.1512
      6 H          62.3676   91.2878   13.2088 H       1  UNL1        0.1564
      7 C          62.4460   84.9686   11.1914 C.3     1  UNL1        0.1350
      8 C          62.5005   86.2766   11.9237 C.3     1  UNL1        0.0642
      9 C          61.8313   87.4882   11.3456 C.3     1  UNL1        0.1020
     10 C          61.1075   87.3918   10.0353 C.ar    1  UNL1        0.0319
     11 C          60.4383   88.6034    9.4573 C.ar    1  UNL1        0.0300
     12 C          59.7145   88.5070    8.1470 C.ar    1  UNL1        0.1401
     13 F          59.0452   89.7186    7.5689 F       1  UNL1       -0.2042
     14 C          59.6600   87.1990    7.4148 C.ar    1  UNL1        0.0327
     15 C          60.3292   85.9874    7.9928 C.ar    1  UNL1        0.0389
     16 C          61.0530   86.0838    9.3031 C.ar    1  UNL1        0.1358
     17 O          61.7223   84.8722    9.8812 O.3     1  UNL1       -0.4828
     18 C          63.8981   83.0959   10.1262 C.3     1  UNL1        0.0037
     19 C          62.6699   83.5194   10.8762 C.3     1  UNL1        0.0401
     20 C          63.2476   84.5617   12.3923 C.3     1  UNL1        0.0401
     21 C          62.5748   83.8814   13.5476 C.3     1  UNL1        0.0037
     22 C          64.2190   91.9964   12.3332 C.ar    1  UNL1        0.0516
     23 C          64.4372   92.5787   10.9682 C.ar    1  UNL1        0.0147
     24 C          65.5765   93.5248   10.7298 C.ar    1  UNL1        0.0013
     25 C          66.4976   93.8885   11.8564 C.ar    1  UNL1        0.0016
     26 C          66.2794   93.3062   13.2214 C.ar    1  UNL1        0.0204
     27 C          67.2005   93.6700   14.3480 C.ar    1  UNL1        0.0989
     28 N          66.9823   93.0877   15.7130 N.ar    1  UNL1       -0.2423
     29 C          65.8430   92.1416   15.9515 C.ar    1  UNL1        0.0989
     30 C          64.9218   91.7778   14.8249 C.ar    1  UNL1        0.0219
     31 C          65.1401   92.3602   13.4598 C.ar    1  UNL1        0.0166
@<TRIPOS>BOND
     1    18    19    1
     2    19     7    1
     3     7    20    1
     4    20    21    1
     5     7     8    1
     6     8     9    1
     7     9     1    1
     8     1     2   am
     9     2     3    2
    10     2     4   am
    11     4    22    1
    12    22    23   ar
    13    23    24   ar
    14    24    25   ar
    15    25    26   ar
    16    26    27   ar
    17    27    28   ar
    18    28    29   ar
    19    29    30   ar
    20    30    31   ar
    21     9    10    1
    22    10    11   ar
    23    11    12   ar
    24    12    13    1
    25    12    14   ar
    26    14    15   ar
    27    15    16   ar
    28    16    17    1
    29    17     7    1
    30    31    22   ar
    31    16    10   ar
    32    31    26   ar
    33     1     5    1
    34     4     6    1
@<TRIPOS>MOLECULE
*****
 31 34 0 0 0
SMALL
GASTEIGER

@<TRIPOS>ATOM
      1 N          64.1140   90.5305   13.0442 N.am    1  UNL1       -0.2863
      2 C          64.6171   91.6119   12.1345 C.2     1  UNL1        0.3047
      3 O          64.2211   91.6194   10.6877 O.2     1  UNL1       -0.2525
      4 N          65.5162   92.6858   12.6715 N.am    1  UNL1       -0.2683
      5 H          64.3740   90.5256   13.9937 H       1  UNL1        0.1512
      6 H          65.7761   92.6809   13.6211 H       1  UNL1        0.1564
      7 C          61.2239   88.7329   11.0032 C.3     1  UNL1        0.1350
      8 C          62.1230   89.8068   11.5403 C.3     1  UNL1        0.0642
      9 C          63.2150   89.4566   12.5071 C.3     1  UNL1        0.1020
     10 C          63.4080   88.0325   12.9370 C.ar    1  UNL1        0.0319
     11 C          64.5000   87.6823   13.9038 C.ar    1  UNL1        0.0300
     12 C          64.6930   86.2583   14.3336 C.ar    1  UNL1        0.1401
     13 F          65.7850   85.9080   15.3005 F       1  UNL1       -0.2042
     14 C          63.7939   85.1844   13.7966 C.ar    1  UNL1        0.0327
     15 C          62.7019   85.5345   12.8297 C.ar    1  UNL1        0.0389
     16 C          62.5089   86.9586   12.3999 C.ar    1  UNL1        0.1358
     17 O          61.4168   87.3088   11.4330 O.3     1  UNL1       -0.4828
     18 C          60.4565   87.0383    9.1895 C.3     1  UNL1        0.0037
     19 C          60.1253   88.0741   10.2228 C.3     1  UNL1        0.0401
     20 C          60.6494   89.9282   10.3024 C.3     1  UNL1        0.0401
     21 C          59.5702   90.7362   10.9600 C.3     1  UNL1        0.0037
     22 C          66.0192   93.7672   11.7618 C.ar    1  UNL1        0.0516
     23 C          65.6305   95.1949   12.0073 C.ar    1  UNL1        0.0147
     24 C          66.1335   96.2762   11.0975 C.ar    1  UNL1        0.0013
     25 C          67.0253   95.9297    9.9423 C.ar    1  UNL1        0.0016
     26 C          67.4141   94.5020    9.6967 C.ar    1  UNL1        0.0204
     27 C          68.3059   94.1555    8.5415 C.ar    1  UNL1        0.0989
     28 N          68.6946   92.7278    8.2959 N.ar    1  UNL1       -0.2423
     29 C          68.1916   91.6464    9.2057 C.ar    1  UNL1        0.0989
     30 C          67.2998   91.9928   10.3610 C.ar    1  UNL1        0.0219
     31 C          66.9110   93.4207   10.6065 C.ar    1  UNL1        0.0166
@<TRIPOS>BOND
     1    18    19    1
     2    19     7    1
     3     7    20    1
     4    20    21    1
     5     7     8    1
     6     8     9    1
     7     9     1    1
     8     1     2   am
     9     2     3    2
    10     2     4   am
    11     4    22    1
    12    22    23   ar
    13    23    24   ar
    14    24    25   ar
    15    25    26   ar
    16    26    27   ar
    17    27    28   ar
    18    28    29   ar
    19    29    30   ar
    20    30    31   ar
    21     9    10    1
    22    10    11   ar
    23    11    12   ar
    24    12    13    1
    25    12    14   ar
    26    14    15   ar
    27    15    16   ar
    28    16    17    1
    29    17     7    1
    30    31    22   ar
    31    16    10   ar
    32    31    26   ar
    33     1     5    1
    34     4     6    1
