@<TRIPOS>MOLECULE
*****
 33 37 0 0 0
SMALL
GASTEIGER

@<TRIPOS>ATOM
      1 C          67.3732   92.1546   14.4061 C.3     1  UNL1        0.0535
      2 C          66.2041   91.8000   13.5357 C.ar    1  UNL1        0.0743
      3 N          65.5405   90.4625   13.6794 N.ar    1  UNL1       -0.2296
      4 C          64.3714   90.1079   12.8091 C.ar    1  UNL1        0.1649
      5 C          63.8660   91.0908   11.7950 C.ar    1  UNL1        0.0580
      6 C          62.7035   90.4655   11.0826 C.ar    1  UNL1        0.1236
      7 N          62.4904   89.0961   11.6564 N.ar    1  UNL1       -0.1621
      8 N          63.5213   88.8751   12.7235 N.ar    1  UNL1       -0.2117
      9 C          64.5296   92.4283   11.6512 C.ar    1  UNL1        0.0205
     10 C          65.6987   92.7829   12.5216 C.ar    1  UNL1        0.0623
     11 C          63.6750   87.6384   13.5583 C.ar    1  UNL1        0.0915
     12 C          64.2189   87.5793   14.9549 C.ar    1  UNL1        0.0548
     13 S          64.1918   86.1480   15.4028 S.2     1  UNL1       -0.0803
     14 C          63.6311   85.3224   14.2830 C.ar    1  UNL1        0.0843
     15 C          63.3117   86.2435   13.1430 C.ar    1  UNL1        0.0307
     16 C          63.4259   83.8366   14.3001 C.2     1  UNL1        0.2520
     17 O          64.0953   82.9990   15.3490 O.2     1  UNL1       -0.2696
     18 N          62.5511   83.1884   13.2682 N.am    1  UNL1       -0.2974
     19 H          62.1117   83.7381   12.5798 H       1  UNL1        0.1499
     20 C          62.3459   81.7026   13.2853 C.3     1  UNL1        0.1312
     21 C          62.8410   80.5539   12.4576 C.3     1  UNL1        0.1642
     22 O          62.0557   79.6014   13.3096 O.3     1  UNL1       -0.3501
     23 C          61.5605   80.7501   14.1374 C.3     1  UNL1        0.1642
     24 N          66.3624   94.1205   12.3779 N.pl3   1  UNL1       -0.3092
     25 H          66.6225   94.6296   13.1794 H       1  UNL1        0.1523
     26 C          66.6297   94.6822   11.0130 C.ar    1  UNL1        0.0868
     27 C          66.1279   96.0492   10.6531 C.ar    1  UNL1        0.1542
     28 F          65.3588   96.8545   11.6580 F       1  UNL1       -0.2028
     29 C          66.3952   96.6110    9.2882 C.ar    1  UNL1        0.0310
     30 C          67.1643   95.8058    8.2832 C.ar    1  UNL1        0.0033
     31 C          67.6661   94.4388    8.6430 C.ar    1  UNL1        0.0128
     32 C          67.3988   93.8770   10.0080 C.ar    1  UNL1        0.0732
     33 CL         67.9006   92.5100   10.3678 Cl      1  UNL1       -0.0809
@<TRIPOS>BOND
     1     1     2    1
     2     2     3   ar
     3     3     4   ar
     4     4     5   ar
     5     5     6   ar
     6     6     7   ar
     7     7     8   ar
     8     8    11    1
     9    11    12   ar
    10    12    13   ar
    11    13    14   ar
    12    14    16    1
    13    16    17    2
    14    16    18   am
    15    18    20    1
    16    20    21    1
    17    21    22    1
    18    22    23    1
    19    14    15   ar
    20     5     9   ar
    21     9    10   ar
    22    10    24    1
    23    24    26    1
    24    26    27   ar
    25    27    28    1
    26    27    29   ar
    27    29    30   ar
    28    30    31   ar
    29    31    32   ar
    30    32    33    1
    31    10     2   ar
    32    32    26   ar
    33     8     4   ar
    34    15    11   ar
    35    23    20    1
    36    18    19    1
    37    24    25    1
@<TRIPOS>MOLECULE
*****
 33 37 0 0 0
SMALL
GASTEIGER

@<TRIPOS>ATOM
      1 C          61.5314   89.3403    9.5715 C.3     1  UNL1        0.0535
      2 C          62.1715   88.8745   10.8457 C.ar    1  UNL1        0.0743
      3 N          63.1262   89.7712   11.5768 N.ar    1  UNL1       -0.2296
      4 C          63.7663   89.3054   12.8508 C.ar    1  UNL1        0.1649
      5 C          63.4518   87.9429   13.3938 C.ar    1  UNL1        0.0580
      6 C          64.2303   87.7585   14.6626 C.ar    1  UNL1        0.1236
      7 N          65.0260   89.0070   14.9038 N.ar    1  UNL1       -0.1621
      8 N          64.7392   89.9630   13.7841 N.ar    1  UNL1       -0.2117
      9 C          62.4972   87.0462   12.6627 C.ar    1  UNL1        0.0205
     10 C          61.8570   87.5121   11.3886 C.ar    1  UNL1        0.0623
     11 C          65.3229   91.3357   13.6255 C.ar    1  UNL1        0.0915
     12 C          65.9481   92.1589   14.7125 C.ar    1  UNL1        0.0548
     13 S          66.3954   93.4581   14.1108 S.2     1  UNL1       -0.0803
     14 C          66.0468   93.4378   12.6520 C.ar    1  UNL1        0.0843
     15 C          65.3839   92.1261   12.3521 C.ar    1  UNL1        0.0307
     16 C          66.3140   94.5364   11.6662 C.2     1  UNL1        0.2520
     17 O          66.1060   95.9677   12.0637 O.2     1  UNL1       -0.2696
     18 N          66.7894   94.2036   10.2830 N.am    1  UNL1       -0.2974
     19 H          66.9259   93.2641   10.0221 H       1  UNL1        0.1499
     20 C          67.0566   95.3021    9.2972 C.3     1  UNL1        0.1312
     21 C          67.2503   96.7866    9.3901 C.3     1  UNL1        0.1642
     22 O          67.4346   96.8557    7.9031 O.3     1  UNL1       -0.3501
     23 C          67.2409   95.3711    7.8102 C.3     1  UNL1        0.1642
     24 N          60.9023   86.6153   10.6574 N.pl3   1  UNL1       -0.3092
     25 H          60.0166   86.4219   11.0413 H       1  UNL1        0.1523
     26 C          61.2971   86.0134    9.3415 C.ar    1  UNL1        0.0868
     27 C          62.5954   85.2728    9.2148 C.ar    1  UNL1        0.1542
     28 F          63.4989   85.1342   10.4041 F       1  UNL1       -0.2028
     29 C          62.9902   84.6708    7.8989 C.ar    1  UNL1        0.0310
     30 C          62.0868   84.8094    6.7095 C.ar    1  UNL1        0.0033
     31 C          60.7885   85.5499    6.8362 C.ar    1  UNL1        0.0128
     32 C          60.3936   86.1519    8.1521 C.ar    1  UNL1        0.0732
     33 CL         59.0954   86.8924    8.2787 Cl      1  UNL1       -0.0809
@<TRIPOS>BOND
     1     1     2    1
     2     2     3   ar
     3     3     4   ar
     4     4     5   ar
     5     5     6   ar
     6     6     7   ar
     7     7     8   ar
     8     8    11    1
     9    11    12   ar
    10    12    13   ar
    11    13    14   ar
    12    14    16    1
    13    16    17    2
    14    16    18   am
    15    18    20    1
    16    20    21    1
    17    21    22    1
    18    22    23    1
    19    14    15   ar
    20     5     9   ar
    21     9    10   ar
    22    10    24    1
    23    24    26    1
    24    26    27   ar
    25    27    28    1
    26    27    29   ar
    27    29    30   ar
    28    30    31   ar
    29    31    32   ar
    30    32    33    1
    31    10     2   ar
    32    32    26   ar
    33     8     4   ar
    34    15    11   ar
    35    23    20    1
    36    18    19    1
    37    24    25    1
@<TRIPOS>MOLECULE
*****
 33 37 0 0 0
SMALL
GASTEIGER

@<TRIPOS>ATOM
      1 C          64.6753   88.9490   14.8163 C.3     1  UNL1        0.0535
      2 C          63.8594   89.3093   13.6103 C.ar    1  UNL1        0.0743
      3 N          63.5013   88.2552   12.6049 N.ar    1  UNL1       -0.2296
      4 C          62.6854   88.6154   11.3989 C.ar    1  UNL1        0.1649
      5 C          62.2275   90.0297   11.1982 C.ar    1  UNL1        0.0580
      6 C          61.4414   90.0858    9.9220 C.ar    1  UNL1        0.1236
      7 N          61.4134   88.7062    9.3339 N.ar    1  UNL1       -0.1621
      8 N          62.1822   87.7974   10.2467 N.ar    1  UNL1       -0.2117
      9 C          62.5856   91.0837   12.2036 C.ar    1  UNL1        0.0205
     10 C          63.4016   90.7235   13.4096 C.ar    1  UNL1        0.0623
     11 C          62.4081   86.3286   10.0429 C.ar    1  UNL1        0.0915
     12 C          62.5972   85.6403    8.7237 C.ar    1  UNL1        0.0548
     13 S          62.7906   84.1765    8.9881 S.2     1  UNL1       -0.0803
     14 C          62.7211   83.9601   10.4708 C.ar    1  UNL1        0.0843
     15 C          62.4847   85.2902   11.1227 C.ar    1  UNL1        0.0307
     16 C          62.8630   82.6447   11.1775 C.2     1  UNL1        0.2520
     17 O          63.4357   81.4624   10.4536 O.2     1  UNL1       -0.2696
     18 N          62.4322   82.5116   12.6082 N.am    1  UNL1       -0.2974
     19 H          62.0564   83.2876   13.0833 H       1  UNL1        0.1499
     20 C          62.5742   81.1961   13.3149 C.3     1  UNL1        0.1312
     21 C          61.6216   80.1410   13.7932 C.3     1  UNL1        0.1642
     22 O          62.7749   79.3358   14.3143 O.3     1  UNL1       -0.3501
     23 C          63.7276   80.3911   13.8359 C.3     1  UNL1        0.1642
     24 N          63.7597   91.7776   14.4151 N.pl3   1  UNL1       -0.3092
     25 H          63.0511   92.2309   14.9266 H       1  UNL1        0.1523
     26 C          65.1973   92.1409   14.6410 C.ar    1  UNL1        0.0868
     27 C          66.1443   92.2124   13.4799 C.ar    1  UNL1        0.1542
     28 F          65.6537   91.9204   12.0929 F       1  UNL1       -0.2028
     29 C          67.5820   92.5757   13.7059 C.ar    1  UNL1        0.0310
     30 C          68.0727   92.8676   15.0929 C.ar    1  UNL1        0.0033
     31 C          67.1258   92.7962   16.2540 C.ar    1  UNL1        0.0128
     32 C          65.6881   92.4329   16.0281 C.ar    1  UNL1        0.0732
     33 CL         64.7411   92.3614   17.1892 Cl      1  UNL1       -0.0809
@<TRIPOS>BOND
     1     1     2    1
     2     2     3   ar
     3     3     4   ar
     4     4     5   ar
     5     5     6   ar
     6     6     7   ar
     7     7     8   ar
     8     8    11    1
     9    11    12   ar
    10    12    13   ar
    11    13    14   ar
    12    14    16    1
    13    16    17    2
    14    16    18   am
    15    18    20    1
    16    20    21    1
    17    21    22    1
    18    22    23    1
    19    14    15   ar
    20     5     9   ar
    21     9    10   ar
    22    10    24    1
    23    24    26    1
    24    26    27   ar
    25    27    28    1
    26    27    29   ar
    27    29    30   ar
    28    30    31   ar
    29    31    32   ar
    30    32    33    1
    31    10     2   ar
    32    32    26   ar
    33     8     4   ar
    34    15    11   ar
    35    23    20    1
    36    18    19    1
    37    24    25    1
@<TRIPOS>MOLECULE
*****
 33 37 0 0 0
SMALL
GASTEIGER

@<TRIPOS>ATOM
      1 C          44.4369   73.6432   14.5850 C.3     1  UNL1        0.0535
      2 C          44.6307   73.5472   16.0694 C.ar    1  UNL1        0.0743
      3 N          45.1117   74.7398   16.8415 N.ar    1  UNL1       -0.2296
      4 C          45.3054   74.6439   18.3259 C.ar    1  UNL1        0.1649
      5 C          45.0182   73.3554   19.0380 C.ar    1  UNL1        0.0580
      6 C          45.2999   73.5593   20.4971 C.ar    1  UNL1        0.1236
      7 N          45.7613   74.9739   20.6868 N.ar    1  UNL1       -0.1621
      8 N          45.7647   75.6443   19.3449 N.ar    1  UNL1       -0.2117
      9 C          44.5372   72.1627   18.2658 C.ar    1  UNL1        0.0205
     10 C          44.3435   72.2587   16.7814 C.ar    1  UNL1        0.0623
     11 C          46.1583   77.0654   19.0702 C.ar    1  UNL1        0.0915
     12 C          47.4614   77.7074   19.4439 C.ar    1  UNL1        0.0548
     13 S          47.4263   79.1328   18.9783 S.2     1  UNL1       -0.0803
     14 C          46.1014   79.3719   18.3169 C.ar    1  UNL1        0.0843
     15 C          45.3177   78.0942   18.3737 C.ar    1  UNL1        0.0307
     16 C          45.6410   80.6622   17.7059 C.2     1  UNL1        0.2520
     17 O          45.8434   81.9542   18.4405 O.2     1  UNL1       -0.2696
     18 N          44.9783   80.6604   16.3602 N.am    1  UNL1       -0.2974
     19 H          44.8455   79.8124   15.8780 H       1  UNL1        0.1499
     20 C          44.5179   81.9506   15.7492 C.3     1  UNL1        0.1312
     21 C          44.6661   82.6002   14.4054 C.3     1  UNL1        0.1642
     22 O          43.8669   83.7753   14.8851 O.3     1  UNL1       -0.3501
     23 C          43.7187   83.1257   16.2291 C.3     1  UNL1        0.1642
     24 N          43.8624   71.0661   16.0092 N.pl3   1  UNL1       -0.3092
     25 H          42.9053   70.8355   16.0052 H       1  UNL1        0.1523
     26 C          44.8397   70.2247   15.2430 C.ar    1  UNL1        0.0868
     27 C          45.9311   69.4948   15.9683 C.ar    1  UNL1        0.1542
     28 F          46.0453   69.6062   17.4597 F       1  UNL1       -0.2028
     29 C          46.9084   68.6535   15.2021 C.ar    1  UNL1        0.0310
     30 C          46.7943   68.5421   13.7106 C.ar    1  UNL1        0.0033
     31 C          45.7029   69.2720   12.9853 C.ar    1  UNL1        0.0128
     32 C          44.7256   70.1133   13.7515 C.ar    1  UNL1        0.0732
     33 CL         43.6342   70.8432   13.0262 Cl      1  UNL1       -0.0809
@<TRIPOS>BOND
     1     1     2    1
     2     2     3   ar
     3     3     4   ar
     4     4     5   ar
     5     5     6   ar
     6     6     7   ar
     7     7     8   ar
     8     8    11    1
     9    11    12   ar
    10    12    13   ar
    11    13    14   ar
    12    14    16    1
    13    16    17    2
    14    16    18   am
    15    18    20    1
    16    20    21    1
    17    21    22    1
    18    22    23    1
    19    14    15   ar
    20     5     9   ar
    21     9    10   ar
    22    10    24    1
    23    24    26    1
    24    26    27   ar
    25    27    28    1
    26    27    29   ar
    27    29    30   ar
    28    30    31   ar
    29    31    32   ar
    30    32    33    1
    31    10     2   ar
    32    32    26   ar
    33     8     4   ar
    34    15    11   ar
    35    23    20    1
    36    18    19    1
    37    24    25    1
@<TRIPOS>MOLECULE
*****
 33 37 0 0 0
SMALL
GASTEIGER

@<TRIPOS>ATOM
      1 C          63.0141   89.9769   10.6754 C.3     1  UNL1        0.0535
      2 C          62.0043   89.0365   10.0870 C.ar    1  UNL1        0.0743
      3 N          61.2030   89.4506    8.8885 N.ar    1  UNL1       -0.2296
      4 C          60.1933   88.5103    8.3001 C.ar    1  UNL1        0.1649
      5 C          59.9848   87.1559    8.9102 C.ar    1  UNL1        0.0580
      6 C          58.9259   86.4484    8.1176 C.ar    1  UNL1        0.1236
      7 N          58.4800   87.3655    7.0176 N.ar    1  UNL1       -0.1621
      8 N          59.2633   88.6398    7.1303 N.ar    1  UNL1       -0.2117
      9 C          60.7860   86.7419   10.1088 C.ar    1  UNL1        0.0205
     10 C          61.7958   87.6822   10.6971 C.ar    1  UNL1        0.0623
     11 C          59.1384   89.8340    6.2312 C.ar    1  UNL1        0.0915
     12 C          57.8962   90.6452    6.0102 C.ar    1  UNL1        0.0548
     13 S          58.2240   91.7392    5.0377 S.2     1  UNL1       -0.0803
     14 C          59.6687   91.6040    4.6575 C.ar    1  UNL1        0.0843
     15 C          60.2338   90.4266    5.3952 C.ar    1  UNL1        0.0307
     16 C          60.4169   92.4907    3.7067 C.2     1  UNL1        0.2520
     17 O          59.8529   93.8275    3.3263 O.2     1  UNL1       -0.2696
     18 N          61.7292   92.0404    3.1363 N.am    1  UNL1       -0.2974
     19 H          62.0993   91.1630    3.3859 H       1  UNL1        0.1499
     20 C          62.4774   92.9270    2.1854 C.3     1  UNL1        0.1312
     21 C          62.1803   93.5380    0.8482 C.3     1  UNL1        0.1642
     22 O          63.5355   94.1809    0.8408 O.3     1  UNL1       -0.3501
     23 C          63.8326   93.5698    2.1781 C.3     1  UNL1        0.1642
     24 N          62.5972   87.2682   11.8957 N.pl3   1  UNL1       -0.3092
     25 H          62.7970   87.9220   12.6041 H       1  UNL1        0.1523
     26 C          63.0939   85.8578   12.0150 C.ar    1  UNL1        0.0868
     27 C          63.1975   84.9933   10.7936 C.ar    1  UNL1        0.1542
     28 F          62.8043   85.5390    9.4529 F       1  UNL1       -0.2028
     29 C          63.6942   83.5830   10.9129 C.ar    1  UNL1        0.0310
     30 C          64.0875   83.0372   12.2536 C.ar    1  UNL1        0.0033
     31 C          63.9839   83.9017   13.4750 C.ar    1  UNL1        0.0128
     32 C          63.4871   85.3121   13.3557 C.ar    1  UNL1        0.0732
     33 CL         63.3836   86.1766   14.5771 Cl      1  UNL1       -0.0809
@<TRIPOS>BOND
     1     1     2    1
     2     2     3   ar
     3     3     4   ar
     4     4     5   ar
     5     5     6   ar
     6     6     7   ar
     7     7     8   ar
     8     8    11    1
     9    11    12   ar
    10    12    13   ar
    11    13    14   ar
    12    14    16    1
    13    16    17    2
    14    16    18   am
    15    18    20    1
    16    20    21    1
    17    21    22    1
    18    22    23    1
    19    14    15   ar
    20     5     9   ar
    21     9    10   ar
    22    10    24    1
    23    24    26    1
    24    26    27   ar
    25    27    28    1
    26    27    29   ar
    27    29    30   ar
    28    30    31   ar
    29    31    32   ar
    30    32    33    1
    31    10     2   ar
    32    32    26   ar
    33     8     4   ar
    34    15    11   ar
    35    23    20    1
    36    18    19    1
    37    24    25    1
