@<TRIPOS>MOLECULE
*****
 57 62 0 0 0
SMALL
GASTEIGER

@<TRIPOS>ATOM
      1 N          65.3927   89.3964   14.6526 N.3     1  UNL1       -0.1862
      2 C          65.6125   88.1550   15.4653 C.3     1  UNL1        0.1775
      3 C          64.8876   86.8899   15.1131 C.2     1  UNL1        0.2452
      4 O          65.1074   85.6484   15.9259 O.2     1  UNL1       -0.2732
      5 N          63.9430   86.8662   13.9482 N.am    1  UNL1       -0.2541
      6 C          63.2181   85.6010   13.5959 C.3     1  UNL1        0.1577
      7 C          62.2735   85.5773   12.4310 C.2     1  UNL1        0.2445
      8 O          61.5487   84.3122   12.0788 O.2     1  UNL1       -0.2731
      9 N          62.0538   86.8188   11.6182 N.am    1  UNL1       -0.2705
     10 C          62.7786   88.0839   11.9704 C.3     1  UNL1        0.1359
     11 C          63.7233   88.1076   13.1354 C.3     1  UNL1        0.1908
     12 N          64.4481   89.3727   13.4877 N.am    1  UNL1       -0.1863
     13 C          64.2283   90.6142   12.6749 C.2     1  UNL1        0.3191
     14 O          63.2837   90.5905   11.5099 O.2     1  UNL1       -0.2512
     15 N          64.9532   91.8793   13.0271 N.am    1  UNL1       -0.2836
     16 H          65.5732   91.8948   13.7917 H       1  UNL1        0.1513
     17 C          66.1176   90.6615   15.0048 C.3     1  UNL1        0.1188
     18 C          68.1479   92.2450   14.6580 C.2     1  UNL1       -0.0034
     19 C          67.5035   90.9017   14.4839 C.2     1  UNL1       -0.0071
     20 C          63.4379   84.3596   14.4087 C.3     1  UNL1        0.0556
     21 C          63.2043   83.0107   13.7956 C.ar    1  UNL1       -0.0198
     22 C          62.1522   82.1026   14.3597 C.ar    1  UNL1       -0.0011
     23 C          61.9186   80.7536   13.7466 C.ar    1  UNL1        0.0363
     24 C          62.7371   80.3129   12.5695 C.ar    1  UNL1        0.1337
     25 O          62.5036   78.9639   11.9564 O.3     1  UNL1       -0.5055
     26 C          63.7893   81.2210   12.0054 C.ar    1  UNL1        0.0363
     27 C          64.0229   82.5700   12.6184 C.ar    1  UNL1       -0.0011
     28 H          61.8463   78.3966   12.3088 H       1  UNL1        0.2922
     29 C          61.1092   86.7951   10.4533 C.3     1  UNL1        0.1217
     30 C          60.5290   88.0764    9.9319 C.ar    1  UNL1        0.0135
     31 C          60.3082   89.2327   10.8615 C.ar    1  UNL1       -0.0012
     32 C          59.7281   90.5140   10.3403 C.ar    1  UNL1       -0.0002
     33 C          59.3686   90.6389    8.8894 C.ar    1  UNL1        0.0016
     34 C          59.5893   89.4825    7.9598 C.ar    1  UNL1        0.0214
     35 C          59.3339   89.3121    6.4915 C.ar    1  UNL1        0.0719
     36 C          59.7561   87.9255    6.1054 C.ar    1  UNL1        0.0805
     37 N          60.2726   87.2391    7.3350 N.ar    1  UNL1       -0.3241
     38 C          60.7996   85.8365    7.4061 C.3     1  UNL1        0.1305
     39 C          60.1695   88.2013    8.4810 C.ar    1  UNL1        0.0577
     40 C          58.7573   90.3467    5.5710 C.2     1  UNL1        0.2473
     41 O          57.2723   90.4357    5.3790 O.2     1  UNL1       -0.2701
     42 N          59.6657   91.2923    4.8425 N.am    1  UNL1       -0.3008
     43 H          60.6404   91.2338    4.9686 H       1  UNL1        0.1497
     44 C          59.0893   92.3268    3.9220 C.3     1  UNL1        0.0903
     45 C          59.9998   93.2407    3.1567 C.3     1  UNL1        0.0329
     46 C          60.9508   92.6756    2.1436 C.3     1  UNL1        0.1113
     47 C          62.3525   92.3236    2.5453 C.2     1  UNL1        0.3171
     48 O          62.5941   91.4693    3.7544 O.2     1  UNL1       -0.2501
     49 O          63.5126   92.8259    1.7381 O.3     1  UNL1       -0.4444
     50 C          63.7844   94.2985    1.6511 C.3     1  UNL1        0.2556
     51 C          64.7334   93.1207   12.2144 C.3     1  UNL1        0.1177
     52 C          65.7461   93.5342   11.1880 C.ar    1  UNL1       -0.0025
     53 C          66.7868   92.5581   10.7254 C.ar    1  UNL1       -0.0026
     54 C          67.7995   92.9716    9.6990 C.ar    1  UNL1       -0.0003
     55 C          67.7715   94.3613    9.1352 C.ar    1  UNL1       -0.0000
     56 C          66.7307   95.3375    9.5977 C.ar    1  UNL1       -0.0003
     57 C          65.7180   94.9240   10.6241 C.ar    1  UNL1       -0.0026
@<TRIPOS>BOND
     1    18    19    2
     2    19    17    1
     3    17     1    1
     4     1     2    1
     5     2     3    1
     6     3     4    2
     7     3     5   am
     8     5     6    1
     9     6    20    1
    10    20    21    1
    11    21    22   ar
    12    22    23   ar
    13    23    24   ar
    14    24    25    1
    15    24    26   ar
    16    26    27   ar
    17     6     7    1
    18     7     8    2
    19     7     9   am
    20     9    29    1
    21    29    30    1
    22    30    31   ar
    23    31    32   ar
    24    32    33   ar
    25    33    34   ar
    26    34    35   ar
    27    35    40    1
    28    40    41    2
    29    40    42   am
    30    42    44    1
    31    44    45    1
    32    45    46    1
    33    46    47    1
    34    47    48    2
    35    47    49    1
    36    49    50    1
    37    35    36   ar
    38    36    37   ar
    39    37    38    1
    40    37    39   ar
    41     9    10    1
    42    11    10    1
    43    11    12    1
    44    12    13   am
    45    13    14    2
    46    13    15   am
    47    15    51    1
    48    51    52    1
    49    52    53   ar
    50    53    54   ar
    51    54    55   ar
    52    55    56   ar
    53    56    57   ar
    54    12     1    1
    55    57    52   ar
    56    11     5    1
    57    27    21   ar
    58    39    30   ar
    59    39    34   ar
    60    25    28    1
    61    42    43    1
    62    15    16    1
@<TRIPOS>MOLECULE
*****
 57 62 0 0 0
SMALL
GASTEIGER

@<TRIPOS>ATOM
      1 N          60.7148   89.6802    9.8712 N.3     1  UNL1       -0.1862
      2 C          61.0174   90.9876   10.5414 C.3     1  UNL1        0.1775
      3 C          61.9637   91.0328   11.7044 C.2     1  UNL1        0.2452
      4 O          62.2663   92.3403   12.3746 O.2     1  UNL1       -0.2732
      5 N          62.6074   89.7708   12.1971 N.am    1  UNL1       -0.2541
      6 C          63.5537   89.8161   13.3600 C.3     1  UNL1        0.1577
      7 C          64.1974   88.5540   13.8528 C.2     1  UNL1        0.2445
      8 O          65.1437   88.5993   15.0157 O.2     1  UNL1       -0.2731
      9 N          63.8948   87.2466   13.1826 N.am    1  UNL1       -0.2705
     10 C          62.9485   87.2013   12.0196 C.3     1  UNL1        0.1359
     11 C          62.3048   88.4635   11.5269 C.3     1  UNL1        0.1908
     12 N          61.3584   88.4182   10.3640 N.am    1  UNL1       -0.1863
     13 C          61.0558   87.1107    9.6938 C.2     1  UNL1        0.3191
     14 O          61.6995   85.8487   10.1865 O.2     1  UNL1       -0.2512
     15 N          60.1095   87.0654    8.5308 N.am    1  UNL1       -0.2836
     16 H          59.6871   87.8938    8.2074 H       1  UNL1        0.1513
     17 C          59.7685   89.6349    8.7083 C.3     1  UNL1        0.1188
     18 C          59.3969   89.7486    6.1394 C.2     1  UNL1       -0.0034
     19 C          60.2339   90.0555    7.3458 C.2     1  UNL1       -0.0071
     20 C          63.8563   91.1234   14.0302 C.3     1  UNL1        0.0556
     21 C          65.2777   91.5794   14.1777 C.ar    1  UNL1       -0.0198
     22 C          65.8029   91.9735   15.5263 C.ar    1  UNL1       -0.0011
     23 C          67.2243   92.4294   15.6737 C.ar    1  UNL1        0.0363
     24 C          68.1206   92.4912   14.4725 C.ar    1  UNL1        0.1337
     25 O          69.5420   92.9471   14.6199 O.3     1  UNL1       -0.5055
     26 C          67.5954   92.0970   13.1238 C.ar    1  UNL1        0.0363
     27 C          66.1740   91.6411   12.9764 C.ar    1  UNL1       -0.0011
     28 H          69.8700   93.1933   15.4624 H       1  UNL1        0.2922
     29 C          64.5384   85.9845   13.6753 C.3     1  UNL1        0.1217
     30 C          63.7202   84.9606   14.4049 C.ar    1  UNL1        0.0135
     31 C          63.4003   85.1526   15.8577 C.ar    1  UNL1       -0.0012
     32 C          62.5821   84.1288   16.5872 C.ar    1  UNL1       -0.0002
     33 C          62.0838   82.9129   15.8639 C.ar    1  UNL1        0.0016
     34 C          62.4037   82.7209   14.4110 C.ar    1  UNL1        0.0214
     35 C          62.0528   81.6315   13.4415 C.ar    1  UNL1        0.0719
     36 C          62.6542   81.9820   12.1128 C.ar    1  UNL1        0.0805
     37 N          63.3767   83.2881   12.2611 N.ar    1  UNL1       -0.3241
     38 C          64.1230   84.0106   11.1791 C.3     1  UNL1        0.1305
     39 C          63.2219   83.7448   13.6815 C.ar    1  UNL1        0.0577
     40 C          61.2427   80.4064   13.7471 C.2     1  UNL1        0.2473
     41 O          61.8658   79.0469   13.6303 O.2     1  UNL1       -0.2701
     42 N          59.8097   80.5410   14.1694 N.am    1  UNL1       -0.3008
     43 H          59.4009   81.4333   14.2461 H       1  UNL1        0.1497
     44 C          58.9997   79.3161   14.4750 C.3     1  UNL1        0.0903
     45 C          58.1187   79.2830   15.6885 C.3     1  UNL1        0.0329
     46 C          57.1374   80.3907   15.9334 C.3     1  UNL1        0.1113
     47 C          56.4703   80.5198   17.2707 C.2     1  UNL1        0.3171
     48 O          56.4805   79.3654   18.2284 O.2     1  UNL1       -0.2501
     49 O          55.7931   81.8032   17.6503 O.3     1  UNL1       -0.4444
     50 C          55.9795   82.3712   19.0260 C.3     1  UNL1        0.2556
     51 C          59.8069   85.7581    7.8606 C.3     1  UNL1        0.1177
     52 C          60.8229   85.1261    6.9561 C.ar    1  UNL1       -0.0025
     53 C          60.3790   84.4005    5.7206 C.ar    1  UNL1       -0.0026
     54 C          61.3950   83.7685    4.8161 C.ar    1  UNL1       -0.0003
     55 C          62.8551   83.8620    5.1470 C.ar    1  UNL1       -0.0000
     56 C          63.2991   84.5876    6.3825 C.ar    1  UNL1       -0.0003
     57 C          62.2830   85.2196    7.2871 C.ar    1  UNL1       -0.0026
@<TRIPOS>BOND
     1    18    19    2
     2    19    17    1
     3    17     1    1
     4     1     2    1
     5     2     3    1
     6     3     4    2
     7     3     5   am
     8     5     6    1
     9     6    20    1
    10    20    21    1
    11    21    22   ar
    12    22    23   ar
    13    23    24   ar
    14    24    25    1
    15    24    26   ar
    16    26    27   ar
    17     6     7    1
    18     7     8    2
    19     7     9   am
    20     9    29    1
    21    29    30    1
    22    30    31   ar
    23    31    32   ar
    24    32    33   ar
    25    33    34   ar
    26    34    35   ar
    27    35    40    1
    28    40    41    2
    29    40    42   am
    30    42    44    1
    31    44    45    1
    32    45    46    1
    33    46    47    1
    34    47    48    2
    35    47    49    1
    36    49    50    1
    37    35    36   ar
    38    36    37   ar
    39    37    38    1
    40    37    39   ar
    41     9    10    1
    42    11    10    1
    43    11    12    1
    44    12    13   am
    45    13    14    2
    46    13    15   am
    47    15    51    1
    48    51    52    1
    49    52    53   ar
    50    53    54   ar
    51    54    55   ar
    52    55    56   ar
    53    56    57   ar
    54    12     1    1
    55    57    52   ar
    56    11     5    1
    57    27    21   ar
    58    39    30   ar
    59    39    34   ar
    60    25    28    1
    61    42    43    1
    62    15    16    1
@<TRIPOS>MOLECULE
*****
 57 62 0 0 0
SMALL
GASTEIGER

@<TRIPOS>ATOM
      1 N          62.2800   89.9800   10.0854 N.3     1  UNL1       -0.1862
      2 C          62.7559   91.3493   10.4708 C.3     1  UNL1        0.1775
      3 C          63.4210   91.5664   11.7976 C.2     1  UNL1        0.2452
      4 O          63.8969   92.9358   12.1829 O.2     1  UNL1       -0.2732
      5 N          63.6102   90.4141   12.7391 N.am    1  UNL1       -0.2541
      6 C          64.2752   90.6312   14.0660 C.3     1  UNL1        0.1577
      7 C          64.4644   89.4790   15.0075 C.2     1  UNL1        0.2445
      8 O          65.1295   89.6960   16.3344 O.2     1  UNL1       -0.2731
      9 N          63.9885   88.1096   14.6222 N.am    1  UNL1       -0.2705
     10 C          63.3235   87.8925   13.2953 C.3     1  UNL1        0.1359
     11 C          63.1343   89.0449   12.3538 C.3     1  UNL1        0.1908
     12 N          62.4692   88.8278   11.0269 N.am    1  UNL1       -0.1863
     13 C          61.9933   87.4584   10.6416 C.2     1  UNL1        0.3191
     14 O          62.1825   86.3062   11.5831 O.2     1  UNL1       -0.2512
     15 N          61.3282   87.2414    9.3148 N.am    1  UNL1       -0.2836
     16 H          61.2040   87.9977    8.6968 H       1  UNL1        0.1513
     17 C          61.6149   89.7630    8.7586 C.3     1  UNL1        0.1188
     18 C          59.4527   89.2610    7.4086 C.2     1  UNL1       -0.0034
     19 C          60.1181   89.7396    8.6648 C.2     1  UNL1       -0.0071
     20 C          64.7511   92.0005   14.4513 C.3     1  UNL1        0.0556
     21 C          66.2210   92.2880   14.5340 C.ar    1  UNL1       -0.0198
     22 C          67.1215   91.9258   13.3905 C.ar    1  UNL1       -0.0011
     23 C          68.5914   92.2133   13.4732 C.ar    1  UNL1        0.0363
     24 C          69.1607   92.8629   14.6994 C.ar    1  UNL1        0.1337
     25 O          70.6306   93.1504   14.7821 O.3     1  UNL1       -0.5055
     26 C          68.2602   93.2251   15.8431 C.ar    1  UNL1        0.0363
     27 C          66.7903   92.9376   15.7604 C.ar    1  UNL1       -0.0011
     28 H          71.1932   92.9242   14.0677 H       1  UNL1        0.2922
     29 C          64.1777   86.9573   15.5637 C.3     1  UNL1        0.1217
     30 C          64.4085   85.5772   15.0232 C.ar    1  UNL1        0.0135
     31 C          65.7787   85.1688   14.5696 C.ar    1  UNL1       -0.0012
     32 C          66.0094   83.7888   14.0291 C.ar    1  UNL1       -0.0002
     33 C          64.8700   82.8171   13.9423 C.ar    1  UNL1        0.0016
     34 C          63.4999   83.2255   14.3960 C.ar    1  UNL1        0.0214
     35 C          62.1932   82.4897   14.4304 C.ar    1  UNL1        0.0719
     36 C          61.1548   83.4151   14.9922 C.ar    1  UNL1        0.0805
     37 N          61.8198   84.7227   15.3049 N.ar    1  UNL1       -0.3241
     38 C          61.1526   85.9347   15.8844 C.3     1  UNL1        0.1305
     39 C          63.2691   84.6055   14.9365 C.ar    1  UNL1        0.0577
     40 C          61.9649   81.0766   13.9818 C.2     1  UNL1        0.2473
     41 O          60.8173   80.2885   14.5404 O.2     1  UNL1       -0.2701
     42 N          62.8843   80.4516   12.9748 N.am    1  UNL1       -0.3008
     43 H          63.6375   80.9689   12.6082 H       1  UNL1        0.1497
     44 C          62.6561   79.0386   12.5262 C.3     1  UNL1        0.0903
     45 C          62.6352   78.7104   11.0627 C.3     1  UNL1        0.0329
     46 C          62.9360   79.7760   10.0507 C.3     1  UNL1        0.1113
     47 C          63.1255   81.1971   10.4918 C.2     1  UNL1        0.3171
     48 O          61.9459   82.0058   10.9438 O.2     1  UNL1       -0.2501
     49 O          64.4947   81.8095   10.4809 O.3     1  UNL1       -0.4444
     50 C          64.6494   83.3013   10.5044 C.3     1  UNL1        0.2556
     51 C          60.8523   85.8721    8.9294 C.3     1  UNL1        0.1177
     52 C          61.3419   85.2371    7.6617 C.ar    1  UNL1       -0.0025
     53 C          62.8141   85.0808    7.4211 C.ar    1  UNL1       -0.0026
     54 C          63.3037   84.4459    6.1533 C.ar    1  UNL1       -0.0003
     55 C          62.3209   83.9672    5.1262 C.ar    1  UNL1       -0.0000
     56 C          60.8486   84.1235    5.3668 C.ar    1  UNL1       -0.0003
     57 C          60.3590   84.7584    6.6345 C.ar    1  UNL1       -0.0026
@<TRIPOS>BOND
     1    18    19    2
     2    19    17    1
     3    17     1    1
     4     1     2    1
     5     2     3    1
     6     3     4    2
     7     3     5   am
     8     5     6    1
     9     6    20    1
    10    20    21    1
    11    21    22   ar
    12    22    23   ar
    13    23    24   ar
    14    24    25    1
    15    24    26   ar
    16    26    27   ar
    17     6     7    1
    18     7     8    2
    19     7     9   am
    20     9    29    1
    21    29    30    1
    22    30    31   ar
    23    31    32   ar
    24    32    33   ar
    25    33    34   ar
    26    34    35   ar
    27    35    40    1
    28    40    41    2
    29    40    42   am
    30    42    44    1
    31    44    45    1
    32    45    46    1
    33    46    47    1
    34    47    48    2
    35    47    49    1
    36    49    50    1
    37    35    36   ar
    38    36    37   ar
    39    37    38    1
    40    37    39   ar
    41     9    10    1
    42    11    10    1
    43    11    12    1
    44    12    13   am
    45    13    14    2
    46    13    15   am
    47    15    51    1
    48    51    52    1
    49    52    53   ar
    50    53    54   ar
    51    54    55   ar
    52    55    56   ar
    53    56    57   ar
    54    12     1    1
    55    57    52   ar
    56    11     5    1
    57    27    21   ar
    58    39    30   ar
    59    39    34   ar
    60    25    28    1
    61    42    43    1
    62    15    16    1
