@<TRIPOS>MOLECULE
*****
 32 36 0 0 0
SMALL
GASTEIGER

@<TRIPOS>ATOM
      1 C          62.6315   90.3034   11.3447 C.2     1  UNL1        0.2525
      2 O          61.5651   90.9396   10.5032 O.2     1  UNL1       -0.2698
      3 N          62.6076   88.8244   11.5936 N.am    1  UNL1       -0.2660
      4 C          63.6008   88.0515   12.4098 C.3     1  UNL1        0.1236
      5 C          63.1933   86.6081   12.3907 C.ar    1  UNL1        0.0338
      6 C          63.5553   85.2383   12.8833 C.ar    1  UNL1        0.0991
      7 N          62.5339   84.2725   12.3598 N.ar    1  UNL1       -0.2265
      8 N          61.5406   85.0454   11.5436 N.ar    1  UNL1       -0.1679
      9 C          61.9482   86.4888   11.5627 C.ar    1  UNL1        0.0981
     10 C          61.5862   87.8586   11.0701 C.3     1  UNL1        0.1414
     11 C          62.5100   82.7935   12.6087 C.ar    1  UNL1        0.1102
     12 C          62.8819   81.8420   11.5105 C.ar    1  UNL1        0.0214
     13 C          62.8580   80.3629   11.7594 C.ar    1  UNL1        0.0017
     14 C          62.4621   79.8355   13.1066 C.ar    1  UNL1        0.0024
     15 C          62.0901   80.7871   14.2049 C.ar    1  UNL1        0.0312
     16 C          62.1141   82.2660   13.9560 C.ar    1  UNL1        0.1577
     17 F          61.7421   83.2175   15.0542 F       1  UNL1       -0.2026
     18 C          65.6891   92.8165   11.6377 C.ar    1  UNL1        0.1061
     19 C          65.9022   92.8317   13.1224 C.ar    1  UNL1        0.0215
     20 C          65.0252   92.0041   14.0145 C.ar    1  UNL1        0.0384
     21 C          63.9349   91.1614   13.4219 C.ar    1  UNL1        0.1429
     22 C          63.7217   91.1462   11.9372 C.ar    1  UNL1        0.0888
     23 C          64.5989   91.9737   11.0451 C.ar    1  UNL1        0.0259
     24 C          67.4432   94.4715    9.8534 C.3     1  UNL1        0.1816
     25 S          66.5661   93.6440   10.7455 S.O2    1  UNL1        0.0105
     26 O          67.6814   92.6574   10.9267 O.2     1  UNL1       -0.1686
     27 O          65.4509   94.6306   10.5643 O.2     1  UNL1       -0.1686
     28 O          63.0578   90.3338   14.3140 O.3     1  UNL1       -0.4753
     29 C          63.4871   90.0351   15.7199 C.3     1  UNL1        0.2053
     30 C          63.3490   88.6452   16.2669 C.3     1  UNL1        0.0438
     31 C          63.6404   87.1769   16.1719 C.3     1  UNL1        0.0038
     32 C          62.8183   87.7063   17.3094 C.3     1  UNL1        0.0038
@<TRIPOS>BOND
     1    24    25    1
     2    25    26    2
     3    25    27    2
     4    25    18    1
     5    18    19   ar
     6    19    20   ar
     7    20    21   ar
     8    21    28    1
     9    28    29    1
    10    29    30    1
    11    30    31    1
    12    31    32    1
    13    21    22   ar
    14    22     1    1
    15     1     2    2
    16     1     3   am
    17     3     4    1
    18     4     5    1
    19     5     6   ar
    20     6     7   ar
    21     7    11    1
    22    11    12   ar
    23    12    13   ar
    24    13    14   ar
    25    14    15   ar
    26    15    16   ar
    27    16    17    1
    28     7     8   ar
    29     8     9   ar
    30     9    10    1
    31    22    23   ar
    32    23    18   ar
    33    32    30    1
    34    10     3    1
    35     9     5   ar
    36    16    11   ar
@<TRIPOS>MOLECULE
*****
 32 36 0 0 0
SMALL
GASTEIGER

@<TRIPOS>ATOM
      1 C          64.0486   90.3259   15.7645 C.2     1  UNL1        0.2525
      2 O          63.3996   90.9104   16.9840 O.2     1  UNL1       -0.2698
      3 N          63.8164   88.8875   15.4079 N.am    1  UNL1       -0.2660
      4 C          64.3946   88.1678   14.2256 C.3     1  UNL1        0.1236
      5 C          63.9008   86.7518   14.2580 C.ar    1  UNL1        0.0338
      6 C          63.9530   85.4319   13.5474 C.ar    1  UNL1        0.0991
      7 N          63.1018   84.4606   14.3103 N.ar    1  UNL1       -0.2265
      8 N          62.5235   85.1804   15.4926 N.ar    1  UNL1       -0.1679
      9 C          63.0173   86.5964   15.4602 C.ar    1  UNL1        0.0981
     10 C          62.9652   87.9163   16.1709 C.3     1  UNL1        0.1414
     11 C          62.8696   83.0223   13.9538 C.ar    1  UNL1        0.1102
     12 C          61.7658   82.2537   14.6177 C.ar    1  UNL1        0.0214
     13 C          61.5336   80.8153   14.2612 C.ar    1  UNL1        0.0017
     14 C          62.4052   80.1455   13.2405 C.ar    1  UNL1        0.0024
     15 C          63.5090   80.9142   12.5765 C.ar    1  UNL1        0.0312
     16 C          63.7412   82.3524   12.9331 C.ar    1  UNL1        0.1577
     17 F          64.8450   83.1211   12.2691 F       1  UNL1       -0.2026
     18 C          67.0877   92.5931   14.5925 C.ar    1  UNL1        0.1061
     19 C          66.6920   92.8874   13.1759 C.ar    1  UNL1        0.0215
     20 C          65.4152   92.3279   12.6221 C.ar    1  UNL1        0.0384
     21 C          64.5341   91.4740   13.4851 C.ar    1  UNL1        0.1429
     22 C          64.9297   91.1797   14.9017 C.ar    1  UNL1        0.0888
     23 C          66.2066   91.7393   15.4554 C.ar    1  UNL1        0.0259
     24 C          69.6413   93.7122   15.7001 C.3     1  UNL1        0.1816
     25 S          68.3645   93.1526   15.1463 S.O2    1  UNL1        0.0105
     26 O          69.1336   92.4916   14.0411 O.2     1  UNL1       -0.1686
     27 O          67.5954   93.8137   16.2516 O.2     1  UNL1       -0.1686
     28 O          63.2573   90.9145   12.9313 O.3     1  UNL1       -0.4753
     29 C          63.1119   90.6976   11.4542 C.3     1  UNL1        0.2053
     30 C          62.5441   89.4089   10.9376 C.3     1  UNL1        0.0438
     31 C          61.7573   88.6574    9.9050 C.3     1  UNL1        0.0038
     32 C          62.3475   87.9282   11.0755 C.3     1  UNL1        0.0038
@<TRIPOS>BOND
     1    24    25    1
     2    25    26    2
     3    25    27    2
     4    25    18    1
     5    18    19   ar
     6    19    20   ar
     7    20    21   ar
     8    21    28    1
     9    28    29    1
    10    29    30    1
    11    30    31    1
    12    31    32    1
    13    21    22   ar
    14    22     1    1
    15     1     2    2
    16     1     3   am
    17     3     4    1
    18     4     5    1
    19     5     6   ar
    20     6     7   ar
    21     7    11    1
    22    11    12   ar
    23    12    13   ar
    24    13    14   ar
    25    14    15   ar
    26    15    16   ar
    27    16    17    1
    28     7     8   ar
    29     8     9   ar
    30     9    10    1
    31    22    23   ar
    32    23    18   ar
    33    32    30    1
    34    10     3    1
    35     9     5   ar
    36    16    11   ar
@<TRIPOS>MOLECULE
*****
 32 36 0 0 0
SMALL
GASTEIGER

@<TRIPOS>ATOM
      1 C          63.8098   88.6126   15.3815 C.2     1  UNL1        0.2525
      2 O          63.4885   88.8172   16.8323 O.2     1  UNL1       -0.2698
      3 N          63.6508   87.2557   14.7622 N.am    1  UNL1       -0.2660
      4 C          63.9318   86.9007   13.3322 C.3     1  UNL1        0.1236
      5 C          63.6375   85.4412   13.1505 C.ar    1  UNL1        0.0338
      6 C          63.6292   84.3197   12.1543 C.ar    1  UNL1        0.0991
      7 N          63.1612   83.0795   12.8564 N.ar    1  UNL1       -0.2265
      8 N          62.8802   83.4345   14.2865 N.ar    1  UNL1       -0.1679
      9 C          63.1746   84.8940   14.4682 C.ar    1  UNL1        0.0981
     10 C          63.1828   86.0155   15.4643 C.3     1  UNL1        0.1414
     11 C          63.0022   81.7226   12.2371 C.ar    1  UNL1        0.1102
     12 C          63.2829   81.5271   10.7767 C.ar    1  UNL1        0.0214
     13 C          63.1239   80.1702   10.1574 C.ar    1  UNL1        0.0017
     14 C          62.6841   79.0088   10.9986 C.ar    1  UNL1        0.0024
     15 C          62.4033   79.2043   12.4592 C.ar    1  UNL1        0.0312
     16 C          62.5624   80.5611   13.0784 C.ar    1  UNL1        0.1577
     17 F          62.2817   80.7566   14.5388 F       1  UNL1       -0.2026
     18 C          66.0958   91.5546   14.0143 C.ar    1  UNL1        0.1061
     19 C          65.2510   92.0695   12.8868 C.ar    1  UNL1        0.0215
     20 C          63.9258   91.4320   12.5908 C.ar    1  UNL1        0.0384
     21 C          63.4455   90.2797   13.4225 C.ar    1  UNL1        0.1429
     22 C          64.2902   89.7649   14.5500 C.ar    1  UNL1        0.0888
     23 C          65.6154   90.4024   14.8459 C.ar    1  UNL1        0.0259
     24 C          68.7461   92.8295   14.6063 C.3     1  UNL1        0.1816
     25 S          67.4209   92.1920   14.3103 S.O2    1  UNL1        0.0105
     26 O          67.3224   92.9861   13.0416 O.2     1  UNL1       -0.1686
     27 O          67.5195   91.3979   15.5790 O.2     1  UNL1       -0.1686
     28 O          62.1203   89.6423   13.1265 O.3     1  UNL1       -0.4753
     29 C          61.4502   89.8834   11.8063 C.3     1  UNL1        0.2053
     30 C          61.2285   88.7423   10.8583 C.3     1  UNL1        0.0438
     31 C          60.2953   87.8200   10.1313 C.3     1  UNL1        0.0038
     32 C          61.7776   87.6883    9.9432 C.3     1  UNL1        0.0038
@<TRIPOS>BOND
     1    24    25    1
     2    25    26    2
     3    25    27    2
     4    25    18    1
     5    18    19   ar
     6    19    20   ar
     7    20    21   ar
     8    21    28    1
     9    28    29    1
    10    29    30    1
    11    30    31    1
    12    31    32    1
    13    21    22   ar
    14    22     1    1
    15     1     2    2
    16     1     3   am
    17     3     4    1
    18     4     5    1
    19     5     6   ar
    20     6     7   ar
    21     7    11    1
    22    11    12   ar
    23    12    13   ar
    24    13    14   ar
    25    14    15   ar
    26    15    16   ar
    27    16    17    1
    28     7     8   ar
    29     8     9   ar
    30     9    10    1
    31    22    23   ar
    32    23    18   ar
    33    32    30    1
    34    10     3    1
    35     9     5   ar
    36    16    11   ar
@<TRIPOS>MOLECULE
*****
 32 36 0 0 0
SMALL
GASTEIGER

@<TRIPOS>ATOM
      1 C          63.4684   90.7565   11.7153 C.2     1  UNL1        0.2525
      2 O          62.7022   91.4449   10.6249 O.2     1  UNL1       -0.2698
      3 N          63.2862   89.2857   11.9465 N.am    1  UNL1       -0.2660
      4 C          63.9800   88.4651   12.9931 C.3     1  UNL1        0.1236
      5 C          63.5008   87.0495   12.8650 C.ar    1  UNL1        0.0338
      6 C          63.6334   85.6674   13.4327 C.ar    1  UNL1        0.0991
      7 N          62.7255   84.7588   12.6579 N.ar    1  UNL1       -0.2265
      8 N          62.0317   85.5795   11.6113 N.ar    1  UNL1       -0.1679
      9 C          62.5109   86.9951   11.7393 C.ar    1  UNL1        0.0981
     10 C          62.3783   88.3772   11.1717 C.3     1  UNL1        0.1414
     11 C          62.5433   83.2881   12.8891 C.ar    1  UNL1        0.1102
     12 C          62.8831   82.3105   11.8033 C.ar    1  UNL1        0.0214
     13 C          62.7009   80.8396   12.0344 C.ar    1  UNL1        0.0017
     14 C          62.1790   80.3464   13.3513 C.ar    1  UNL1        0.0024
     15 C          61.8392   81.3240   14.4371 C.ar    1  UNL1        0.0312
     16 C          62.0214   82.7948   14.2060 C.ar    1  UNL1        0.1577
     17 F          61.6816   83.7724   15.2917 F       1  UNL1       -0.2026
     18 C          65.1871   92.3397   14.9231 C.ar    1  UNL1        0.1061
     19 C          66.3136   93.1040   14.2931 C.ar    1  UNL1        0.0215
     20 C          66.4917   93.0858   12.8038 C.ar    1  UNL1        0.0384
     21 C          65.5432   92.3032   11.9446 C.ar    1  UNL1        0.1429
     22 C          64.4168   91.5390   12.5746 C.ar    1  UNL1        0.0888
     23 C          64.2387   91.5572   14.0639 C.ar    1  UNL1        0.0259
     24 C          64.8308   92.3761   17.9016 C.3     1  UNL1        0.1816
     25 S          65.0090   92.3579   16.4124 S.O2    1  UNL1        0.0105
     26 O          63.5678   91.9771   16.2447 O.2     1  UNL1       -0.1686
     27 O          66.4501   92.7387   16.5801 O.2     1  UNL1       -0.1686
     28 O          65.7214   92.2850   10.4553 O.3     1  UNL1       -0.4753
     29 C          67.0171   92.7365    9.8493 C.3     1  UNL1        0.2053
     30 C          67.1539   94.1364    9.3282 C.3     1  UNL1        0.0438
     31 C          67.4403   95.5893    9.5672 C.3     1  UNL1        0.0038
     32 C          67.1043   95.1082    8.1867 C.3     1  UNL1        0.0038
@<TRIPOS>BOND
     1    24    25    1
     2    25    26    2
     3    25    27    2
     4    25    18    1
     5    18    19   ar
     6    19    20   ar
     7    20    21   ar
     8    21    28    1
     9    28    29    1
    10    29    30    1
    11    30    31    1
    12    31    32    1
    13    21    22   ar
    14    22     1    1
    15     1     2    2
    16     1     3   am
    17     3     4    1
    18     4     5    1
    19     5     6   ar
    20     6     7   ar
    21     7    11    1
    22    11    12   ar
    23    12    13   ar
    24    13    14   ar
    25    14    15   ar
    26    15    16   ar
    27    16    17    1
    28     7     8   ar
    29     8     9   ar
    30     9    10    1
    31    22    23   ar
    32    23    18   ar
    33    32    30    1
    34    10     3    1
    35     9     5   ar
    36    16    11   ar
@<TRIPOS>MOLECULE
*****
 32 36 0 0 0
SMALL
GASTEIGER

@<TRIPOS>ATOM
      1 C          63.5207   90.0500   12.7069 C.2     1  UNL1        0.2525
      2 O          63.0328   90.9258   11.5912 O.2     1  UNL1       -0.2698
      3 N          63.3835   88.5597   12.6054 N.am    1  UNL1       -0.2660
      4 C          63.8227   87.5616   13.6354 C.3     1  UNL1        0.1236
      5 C          63.4936   86.1910   13.1225 C.ar    1  UNL1        0.0338
      6 C          63.5616   84.7270   13.4422 C.ar    1  UNL1        0.0991
      7 N          62.9610   83.9732   12.2928 N.ar    1  UNL1       -0.2265
      8 N          62.5218   84.9713   11.2628 N.ar    1  UNL1       -0.1679
      9 C          62.8509   86.3420   11.7756 C.ar    1  UNL1        0.0981
     10 C          62.7829   87.8059   11.4560 C.3     1  UNL1        0.1414
     11 C          62.8238   82.4830   12.1913 C.ar    1  UNL1        0.1102
     12 C          63.2092   81.7789   10.9241 C.ar    1  UNL1        0.0214
     13 C          63.0720   80.2886   10.8225 C.ar    1  UNL1        0.0017
     14 C          62.5492   79.5025   11.9881 C.ar    1  UNL1        0.0024
     15 C          62.1637   80.2066   13.2553 C.ar    1  UNL1        0.0312
     16 C          62.3010   81.6967   13.3569 C.ar    1  UNL1        0.1577
     17 F          61.9155   82.4008   14.6240 F       1  UNL1       -0.2026
     18 C          66.0533   92.0473   15.0192 C.ar    1  UNL1        0.1061
     19 C          65.3961   91.8931   16.3587 C.ar    1  UNL1        0.0215
     20 C          64.1138   91.1246   16.4810 C.ar    1  UNL1        0.0384
     21 C          63.4887   90.5102   15.2637 C.ar    1  UNL1        0.1429
     22 C          64.1459   90.6644   13.9241 C.ar    1  UNL1        0.0888
     23 C          65.4282   91.4329   13.8019 C.ar    1  UNL1        0.0259
     24 C          68.6180   93.5844   14.7746 C.3     1  UNL1        0.1816
     25 S          67.3357   92.8158   14.8969 S.O2    1  UNL1        0.0105
     26 O          67.1752   92.8463   13.4058 O.2     1  UNL1       -0.1686
     27 O          67.4961   92.7854   16.3880 O.2     1  UNL1       -0.1686
     28 O          62.2064   89.7417   15.3860 O.3     1  UNL1       -0.4753
     29 C          61.8591   89.0628   16.6777 C.3     1  UNL1        0.2053
     30 C          62.5129   87.7626   17.0410 C.3     1  UNL1        0.0438
     31 C          63.4782   86.6599   16.7211 C.3     1  UNL1        0.0038
     32 C          62.6800   86.6132   17.9903 C.3     1  UNL1        0.0038
@<TRIPOS>BOND
     1    24    25    1
     2    25    26    2
     3    25    27    2
     4    25    18    1
     5    18    19   ar
     6    19    20   ar
     7    20    21   ar
     8    21    28    1
     9    28    29    1
    10    29    30    1
    11    30    31    1
    12    31    32    1
    13    21    22   ar
    14    22     1    1
    15     1     2    2
    16     1     3   am
    17     3     4    1
    18     4     5    1
    19     5     6   ar
    20     6     7   ar
    21     7    11    1
    22    11    12   ar
    23    12    13   ar
    24    13    14   ar
    25    14    15   ar
    26    15    16   ar
    27    16    17    1
    28     7     8   ar
    29     8     9   ar
    30     9    10    1
    31    22    23   ar
    32    23    18   ar
    33    32    30    1
    34    10     3    1
    35     9     5   ar
    36    16    11   ar
@<TRIPOS>MOLECULE
*****
 32 36 0 0 0
SMALL
GASTEIGER

@<TRIPOS>ATOM
      1 C          60.8174   92.7704   -0.8624 C.2     1  UNL1        0.2525
      2 O          60.8911   91.5391   -0.0089 O.2     1  UNL1       -0.2698
      3 N          59.4833   93.3212   -1.2709 N.am    1  UNL1       -0.2660
      4 C          59.2535   94.5379   -2.1174 C.3     1  UNL1        0.1236
      5 C          57.7730   94.7205   -2.2743 C.ar    1  UNL1        0.0338
      6 C          56.7159   95.5854   -2.8944 C.ar    1  UNL1        0.0991
      7 N          55.3773   95.0161   -2.5281 N.ar    1  UNL1       -0.2265
      8 N          55.6072   93.7993   -1.6815 N.ar    1  UNL1       -0.1679
      9 C          57.0877   93.6167   -1.5246 C.ar    1  UNL1        0.0981
     10 C          58.1448   92.7518   -0.9045 C.3     1  UNL1        0.1414
     11 C          54.0433   95.5667   -2.9365 C.ar    1  UNL1        0.1102
     12 C          52.9842   95.8109   -1.9027 C.ar    1  UNL1        0.0214
     13 C          51.6501   96.3617   -2.3112 C.ar    1  UNL1        0.0017
     14 C          51.3750   96.6682   -3.7535 C.ar    1  UNL1        0.0024
     15 C          52.4341   96.4240   -4.7874 C.ar    1  UNL1        0.0312
     16 C          53.7681   95.8733   -4.3789 C.ar    1  UNL1        0.1577
     17 F          54.8271   95.6291   -5.4128 F       1  UNL1       -0.2026
     18 C          63.7584   94.0664   -3.1907 C.ar    1  UNL1        0.1061
     19 C          64.5989   94.8123   -2.1971 C.ar    1  UNL1        0.0215
     20 C          64.1789   94.8776   -0.7586 C.ar    1  UNL1        0.0384
     21 C          62.9184   94.1969   -0.3137 C.ar    1  UNL1        0.1429
     22 C          62.0779   93.4510   -1.3073 C.ar    1  UNL1        0.0888
     23 C          62.4980   93.3858   -2.7458 C.ar    1  UNL1        0.0259
     24 C          64.5984   93.9359   -6.0677 C.3     1  UNL1        0.1816
     25 S          64.1784   94.0012   -4.6292 S.O2    1  UNL1        0.0105
     26 O          64.2589   95.4984   -4.6737 O.2     1  UNL1       -0.1686
     27 O          64.0979   92.5040   -4.5848 O.2     1  UNL1       -0.1686
     28 O          62.4984   94.2622    1.1248 O.3     1  UNL1       -0.4753
     29 C          63.3886   93.6986    2.1924 C.3     1  UNL1        0.2053
     30 C          63.1013   92.3448    2.7710 C.3     1  UNL1        0.0438
     31 C          63.5166   90.9261    3.0255 C.3     1  UNL1        0.0038
     32 C          62.1884   91.4188    3.5188 C.3     1  UNL1        0.0038
@<TRIPOS>BOND
     1    24    25    1
     2    25    26    2
     3    25    27    2
     4    25    18    1
     5    18    19   ar
     6    19    20   ar
     7    20    21   ar
     8    21    28    1
     9    28    29    1
    10    29    30    1
    11    30    31    1
    12    31    32    1
    13    21    22   ar
    14    22     1    1
    15     1     2    2
    16     1     3   am
    17     3     4    1
    18     4     5    1
    19     5     6   ar
    20     6     7   ar
    21     7    11    1
    22    11    12   ar
    23    12    13   ar
    24    13    14   ar
    25    14    15   ar
    26    15    16   ar
    27    16    17    1
    28     7     8   ar
    29     8     9   ar
    30     9    10    1
    31    22    23   ar
    32    23    18   ar
    33    32    30    1
    34    10     3    1
    35     9     5   ar
    36    16    11   ar
@<TRIPOS>MOLECULE
*****
 32 36 0 0 0
SMALL
GASTEIGER

@<TRIPOS>ATOM
      1 C          59.9270   94.9688    0.6580 C.2     1  UNL1        0.2525
      2 O          59.2674   95.9942    1.5317 O.2     1  UNL1       -0.2698
      3 N          59.1590   94.3321   -0.4622 N.am    1  UNL1       -0.2660
      4 C          59.6826   93.2974   -1.4137 C.3     1  UNL1        0.1236
      5 C          58.5797   92.9442   -2.3671 C.ar    1  UNL1        0.0338
      6 C          58.2217   92.0864   -3.5443 C.ar    1  UNL1        0.0991
      7 N          56.7953   92.3726   -3.9098 N.ar    1  UNL1       -0.2265
      8 N          56.2718   93.4074   -2.9583 N.ar    1  UNL1       -0.1679
      9 C          57.3746   93.7606   -2.0049 C.ar    1  UNL1        0.0981
     10 C          57.7326   94.6184   -0.8276 C.3     1  UNL1        0.1414
     11 C          56.0274   91.7359   -5.0299 C.ar    1  UNL1        0.1102
     12 C          55.1181   90.5759   -4.7515 C.ar    1  UNL1        0.0214
     13 C          54.3501   89.9392   -5.8717 C.ar    1  UNL1        0.0017
     14 C          54.4913   90.4625   -7.2703 C.ar    1  UNL1        0.0024
     15 C          55.4006   91.6227   -7.5487 C.ar    1  UNL1        0.0312
     16 C          56.1686   92.2593   -6.4286 C.ar    1  UNL1        0.1577
     17 F          57.0778   93.4194   -6.7070 F       1  UNL1       -0.2026
     18 C          63.8941   94.9993    0.5499 C.ar    1  UNL1        0.1061
     19 C          64.2100   93.8027    1.3974 C.ar    1  UNL1        0.0215
     20 C          63.0982   92.9947    1.9984 C.ar    1  UNL1        0.0384
     21 C          61.6706   93.3835    1.7519 C.ar    1  UNL1        0.1429
     22 C          61.3547   94.5801    0.9044 C.ar    1  UNL1        0.0888
     23 C          62.4665   95.3881    0.3034 C.ar    1  UNL1        0.0259
     24 C          66.1175   96.6153   -0.6522 C.3     1  UNL1        0.1816
     25 S          65.0058   95.8073   -0.0511 S.O2    1  UNL1        0.0105
     26 O          64.7063   95.2179   -1.3976 O.2     1  UNL1       -0.1686
     27 O          65.3053   96.3968    1.2953 O.2     1  UNL1       -0.1686
     28 O          60.5588   92.5755    2.3529 O.3     1  UNL1       -0.4753
     29 C          59.9204   93.0165    3.6366 C.3     1  UNL1        0.2053
     30 C          59.0582   92.0644    4.4113 C.3     1  UNL1        0.0438
     31 C          57.6988   91.5994    4.8422 C.3     1  UNL1        0.0038
     32 C          58.9245   90.8801    5.3222 C.3     1  UNL1        0.0038
@<TRIPOS>BOND
     1    24    25    1
     2    25    26    2
     3    25    27    2
     4    25    18    1
     5    18    19   ar
     6    19    20   ar
     7    20    21   ar
     8    21    28    1
     9    28    29    1
    10    29    30    1
    11    30    31    1
    12    31    32    1
    13    21    22   ar
    14    22     1    1
    15     1     2    2
    16     1     3   am
    17     3     4    1
    18     4     5    1
    19     5     6   ar
    20     6     7   ar
    21     7    11    1
    22    11    12   ar
    23    12    13   ar
    24    13    14   ar
    25    14    15   ar
    26    15    16   ar
    27    16    17    1
    28     7     8   ar
    29     8     9   ar
    30     9    10    1
    31    22    23   ar
    32    23    18   ar
    33    32    30    1
    34    10     3    1
    35     9     5   ar
    36    16    11   ar
@<TRIPOS>MOLECULE
*****
 32 36 0 0 0
SMALL
GASTEIGER

@<TRIPOS>ATOM
      1 C          60.0903   88.7131   11.3763 C.2     1  UNL1        0.2525
      2 O          58.8814   88.4960   12.2375 O.2     1  UNL1       -0.2698
      3 N          61.3225   89.3403   11.9579 N.am    1  UNL1       -0.2660
      4 C          62.6005   89.6188   11.2237 C.3     1  UNL1        0.1236
      5 C          63.5610   90.2496   12.1878 C.ar    1  UNL1        0.0338
      6 C          64.9444   90.8116   12.3299 C.ar    1  UNL1        0.0991
      7 N          65.1151   91.2703   13.7479 N.ar    1  UNL1       -0.2265
      8 N          63.8370   90.9918   14.4821 N.ar    1  UNL1       -0.1679
      9 C          62.8766   90.3609   13.5180 C.ar    1  UNL1        0.0981
     10 C          61.4931   89.7989   13.3759 C.3     1  UNL1        0.1414
     11 C          66.3473   91.8974   14.3295 C.ar    1  UNL1        0.1102
     12 C          67.6320   91.8847   13.5554 C.ar    1  UNL1        0.0214
     13 C          68.8644   92.5119   14.1370 C.ar    1  UNL1        0.0017
     14 C          68.8118   93.1517   15.4926 C.ar    1  UNL1        0.0024
     15 C          67.5270   93.1644   16.2668 C.ar    1  UNL1        0.0312
     16 C          66.2948   92.5373   15.6852 C.ar    1  UNL1        0.1577
     17 F          65.0100   92.5500   16.4592 F       1  UNL1       -0.2026
     18 C          59.5657   88.8565    7.4451 C.ar    1  UNL1        0.1061
     19 C          60.0200   87.4831    7.0482 C.ar    1  UNL1        0.0215
     20 C          60.4977   86.5197    8.0940 C.ar    1  UNL1        0.0384
     21 C          60.5211   86.9298    9.5368 C.ar    1  UNL1        0.1429
     22 C          60.0668   88.3032    9.9337 C.ar    1  UNL1        0.0888
     23 C          59.5891   89.2665    8.8878 C.ar    1  UNL1        0.0259
     24 C          58.6102   90.7832    5.3535 C.3     1  UNL1        0.1816
     25 S          59.0879   89.8198    6.3993 S.O2    1  UNL1        0.0105
     26 O          60.5065   90.2181    6.1182 O.2     1  UNL1       -0.1686
     27 O          57.6694   89.4215    6.6804 O.2     1  UNL1       -0.1686
     28 O          60.9989   85.9665   10.5826 O.3     1  UNL1       -0.4753
     29 C          62.4675   85.7164   10.7571 C.3     1  UNL1        0.2053
     30 C          62.9706   84.3191   10.9680 C.3     1  UNL1        0.0438
     31 C          63.9489   83.2284   10.6469 C.3     1  UNL1        0.0038
     32 C          62.8636   82.9897   11.6544 C.3     1  UNL1        0.0038
@<TRIPOS>BOND
     1    24    25    1
     2    25    26    2
     3    25    27    2
     4    25    18    1
     5    18    19   ar
     6    19    20   ar
     7    20    21   ar
     8    21    28    1
     9    28    29    1
    10    29    30    1
    11    30    31    1
    12    31    32    1
    13    21    22   ar
    14    22     1    1
    15     1     2    2
    16     1     3   am
    17     3     4    1
    18     4     5    1
    19     5     6   ar
    20     6     7   ar
    21     7    11    1
    22    11    12   ar
    23    12    13   ar
    24    13    14   ar
    25    14    15   ar
    26    15    16   ar
    27    16    17    1
    28     7     8   ar
    29     8     9   ar
    30     9    10    1
    31    22    23   ar
    32    23    18   ar
    33    32    30    1
    34    10     3    1
    35     9     5   ar
    36    16    11   ar
@<TRIPOS>MOLECULE
*****
 32 36 0 0 0
SMALL
GASTEIGER

@<TRIPOS>ATOM
      1 C          61.1592   95.3357    1.0647 C.2     1  UNL1        0.2525
      2 O          62.1208   96.4858    1.1177 O.2     1  UNL1       -0.2698
      3 N          59.8992   95.4482    0.2587 N.am    1  UNL1       -0.2660
      4 C          58.8488   94.3875    0.1119 C.3     1  UNL1        0.1236
      5 C          57.7688   94.9250   -0.7796 C.ar    1  UNL1        0.0338
      6 C          56.4521   94.6015   -1.4212 C.ar    1  UNL1        0.0991
      7 N          56.0211   95.7946   -2.2219 N.ar    1  UNL1       -0.2265
      8 N          57.0715   96.8553   -2.0750 N.ar    1  UNL1       -0.1679
      9 C          58.1516   96.3179   -1.1836 C.ar    1  UNL1        0.0981
     10 C          59.4683   96.6413   -0.5420 C.3     1  UNL1        0.1414
     11 C          54.7611   95.9071   -3.0279 C.ar    1  UNL1        0.1102
     12 C          54.8306   95.9571   -4.5254 C.ar    1  UNL1        0.0214
     13 C          53.5706   96.0697   -5.3315 C.ar    1  UNL1        0.0017
     14 C          52.2410   96.1321   -4.6399 C.ar    1  UNL1        0.0024
     15 C          52.1715   96.0821   -3.1423 C.ar    1  UNL1        0.0312
     16 C          53.4314   95.9695   -2.3363 C.ar    1  UNL1        0.1577
     17 F          53.3619   95.9195   -0.8388 F       1  UNL1       -0.2026
     18 C          60.7391   92.2425    3.5153 C.ar    1  UNL1        0.1061
     19 C          62.0548   91.5481    3.3234 C.ar    1  UNL1        0.0215
     20 C          63.0720   92.1162    2.3787 C.ar    1  UNL1        0.0384
     21 C          62.7734   93.3788    1.6258 C.ar    1  UNL1        0.1429
     22 C          61.4577   94.0732    1.8176 C.ar    1  UNL1        0.0888
     23 C          60.4406   93.5050    2.7624 C.ar    1  UNL1        0.0259
     24 C          58.7048   91.1062    5.4048 C.3     1  UNL1        0.1816
     25 S          59.7220   91.6743    4.4600 S.O2    1  UNL1        0.0105
     26 O          58.6318   92.3838    3.7129 O.2     1  UNL1       -0.1686
     27 O          60.8121   90.9649    5.2071 O.2     1  UNL1       -0.1686
     28 O          63.7906   93.9470    0.6810 O.3     1  UNL1       -0.4753
     29 C          63.8356   93.4783   -0.7432 C.3     1  UNL1        0.2053
     30 C          62.7267   93.8388   -1.6868 C.3     1  UNL1        0.0438
     31 C          61.4632   93.4719   -2.4071 C.3     1  UNL1        0.0038
     32 C          62.0696   94.8301   -2.6009 C.3     1  UNL1        0.0038
@<TRIPOS>BOND
     1    24    25    1
     2    25    26    2
     3    25    27    2
     4    25    18    1
     5    18    19   ar
     6    19    20   ar
     7    20    21   ar
     8    21    28    1
     9    28    29    1
    10    29    30    1
    11    30    31    1
    12    31    32    1
    13    21    22   ar
    14    22     1    1
    15     1     2    2
    16     1     3   am
    17     3     4    1
    18     4     5    1
    19     5     6   ar
    20     6     7   ar
    21     7    11    1
    22    11    12   ar
    23    12    13   ar
    24    13    14   ar
    25    14    15   ar
    26    15    16   ar
    27    16    17    1
    28     7     8   ar
    29     8     9   ar
    30     9    10    1
    31    22    23   ar
    32    23    18   ar
    33    32    30    1
    34    10     3    1
    35     9     5   ar
    36    16    11   ar
