@<TRIPOS>MOLECULE
*****
 28 31 0 0 0
SMALL
GASTEIGER

@<TRIPOS>ATOM
      1 C          66.0720   93.7688   11.5310 C.ar    1  UNL1        0.1721
      2 C          65.1685   93.1389   10.5127 C.ar    1  UNL1        0.0359
      3 C          64.3183   91.9622   10.8901 C.ar    1  UNL1       -0.0158
      4 C          64.3718   91.4152   12.2858 C.ar    1  UNL1        0.0340
      5 C          65.2753   92.0450   13.3041 C.ar    1  UNL1        0.0426
      6 C          66.1254   93.2218   12.9266 C.ar    1  UNL1        0.1725
      7 C          63.4253   90.2542   12.3652 C.2     1  UNL1        0.1727
      8 O          63.1633   89.4117   13.5782 O.2     1  UNL1       -0.2913
      9 C          62.7870   90.0836   11.0185 C.3     1  UNL1        0.0663
     10 C          63.3389   91.1392   10.1069 C.3     1  UNL1        0.0342
     11 C          67.2172   95.2254    9.7098 C.3     1  UNL1        0.2526
     12 O          66.9222   94.9456   11.1536 O.3     1  UNL1       -0.4684
     13 O          67.0290   93.8516   13.9450 O.3     1  UNL1       -0.4684
     14 C          67.3219   93.1379   15.2313 C.3     1  UNL1        0.2526
     15 C          61.7744   89.0405   10.6485 C.3     1  UNL1        0.0081
     16 C          62.1612   87.5913   10.6351 C.3     1  UNL1        0.0032
     17 C          62.2963   86.8632    9.3307 C.3     1  UNL1        0.0174
     18 C          62.6831   85.4140    9.3172 C.3     1  UNL1        0.0724
     19 N          62.9347   84.6928   10.6083 N.3     1  UNL1       -0.2690
     20 C          62.7996   85.4210   11.9127 C.3     1  UNL1        0.0724
     21 C          62.4128   86.8702   11.9261 C.3     1  UNL1        0.0174
     22 C          63.3215   83.2437   10.5948 C.3     1  UNL1        0.0991
     23 C          62.9330   82.3531   11.7376 C.ar    1  UNL1       -0.0061
     24 C          62.6062   82.9485   13.0750 C.ar    1  UNL1       -0.0029
     25 C          62.2177   82.0580   14.2178 C.ar    1  UNL1       -0.0003
     26 C          62.1561   80.5720   14.0232 C.ar    1  UNL1       -0.0000
     27 C          62.4829   79.9765   12.6859 C.ar    1  UNL1       -0.0003
     28 C          62.8714   80.8671   11.5431 C.ar    1  UNL1       -0.0029
@<TRIPOS>BOND
     1    11    12    1
     2    12     1    1
     3     1     2   ar
     4     2     3   ar
     5     3     4   ar
     6     4     5   ar
     7     5     6   ar
     8     6    13    1
     9    13    14    1
    10     4     7    1
    11     7     8    2
    12     7     9    1
    13     9    15    1
    14    15    16    1
    15    16    17    1
    16    17    18    1
    17    18    19    1
    18    19    22    1
    19    22    23    1
    20    23    24   ar
    21    24    25   ar
    22    25    26   ar
    23    26    27   ar
    24    27    28   ar
    25    19    20    1
    26    20    21    1
    27     9    10    1
    28     6     1   ar
    29    21    16    1
    30    10     3    1
    31    28    23   ar
@<TRIPOS>MOLECULE
*****
 28 31 0 0 0
SMALL
GASTEIGER

@<TRIPOS>ATOM
      1 C          63.2910   82.9374   12.8614 C.ar    1  UNL1        0.1721
      2 C          63.7410   84.3397   12.5767 C.ar    1  UNL1        0.0359
      3 C          63.7450   85.3633   13.6732 C.ar    1  UNL1       -0.0158
      4 C          63.2990   84.9846   15.0544 C.ar    1  UNL1        0.0340
      5 C          62.8490   83.5824   15.3391 C.ar    1  UNL1        0.0426
      6 C          62.8450   82.5588   14.2426 C.ar    1  UNL1        0.1725
      7 C          63.4104   86.1997   15.9269 C.2     1  UNL1        0.1727
      8 O          63.0672   86.2723   17.3853 O.2     1  UNL1       -0.2913
      9 C          63.9253   87.3293   15.0849 C.3     1  UNL1        0.0663
     10 C          64.1321   86.8124   13.6921 C.3     1  UNL1        0.0342
     11 C          63.8936   82.2398   10.4324 C.3     1  UNL1        0.2526
     12 O          63.2870   81.9138   11.7650 O.3     1  UNL1       -0.4684
     13 O          62.3950   81.1564   14.5273 O.3     1  UNL1       -0.4684
     14 C          61.0106   80.7214   14.1478 C.3     1  UNL1        0.2526
     15 C          64.1874   88.7299   15.5536 C.3     1  UNL1        0.0081
     16 C          64.3906   89.8297   14.5540 C.3     1  UNL1        0.0032
     17 C          65.4953   90.8255   14.7487 C.3     1  UNL1        0.0174
     18 C          65.6984   91.9253   13.7491 C.3     1  UNL1        0.0724
     19 N          64.7968   92.0292   12.5547 N.3     1  UNL1       -0.2690
     20 C          63.6922   91.0333   12.3600 C.3     1  UNL1        0.0724
     21 C          63.4891   89.9335   13.3597 C.3     1  UNL1        0.0174
     22 C          65.0000   93.1289   11.5551 C.3     1  UNL1        0.0991
     23 C          66.2501   93.1683   10.7271 C.ar    1  UNL1       -0.0061
     24 C          67.1526   91.9713   10.6739 C.ar    1  UNL1       -0.0029
     25 C          68.4027   92.0107    9.8459 C.ar    1  UNL1       -0.0003
     26 C          68.7504   93.2471    9.0710 C.ar    1  UNL1       -0.0000
     27 C          67.8479   94.4440    9.1241 C.ar    1  UNL1       -0.0003
     28 C          66.5978   94.4046    9.9522 C.ar    1  UNL1       -0.0029
@<TRIPOS>BOND
     1    11    12    1
     2    12     1    1
     3     1     2   ar
     4     2     3   ar
     5     3     4   ar
     6     4     5   ar
     7     5     6   ar
     8     6    13    1
     9    13    14    1
    10     4     7    1
    11     7     8    2
    12     7     9    1
    13     9    15    1
    14    15    16    1
    15    16    17    1
    16    17    18    1
    17    18    19    1
    18    19    22    1
    19    22    23    1
    20    23    24   ar
    21    24    25   ar
    22    25    26   ar
    23    26    27   ar
    24    27    28   ar
    25    19    20    1
    26    20    21    1
    27     9    10    1
    28     6     1   ar
    29    21    16    1
    30    10     3    1
    31    28    23   ar
@<TRIPOS>MOLECULE
*****
 28 31 0 0 0
SMALL
GASTEIGER

@<TRIPOS>ATOM
      1 C          63.4102   82.3097   12.2742 C.ar    1  UNL1        0.1721
      2 C          62.9869   83.6099   12.8908 C.ar    1  UNL1        0.0359
      3 C          62.6684   84.7862   12.0162 C.ar    1  UNL1       -0.0158
      4 C          62.7732   84.6622   10.5250 C.ar    1  UNL1        0.0340
      5 C          63.1965   83.3620    9.9085 C.ar    1  UNL1        0.0426
      6 C          63.5150   82.1857   10.7831 C.ar    1  UNL1        0.1725
      7 C          62.3983   85.9838    9.9225 C.2     1  UNL1        0.1727
      8 O          62.3656   86.3077    8.4583 O.2     1  UNL1       -0.2913
      9 C          62.0618   86.9245   11.0414 C.3     1  UNL1        0.0663
     10 C          62.2287   86.1844   12.3353 C.3     1  UNL1        0.0342
     11 C          62.6185   80.3282   13.7564 C.3     1  UNL1        0.2526
     12 O          63.7287   81.1334   13.1489 O.3     1  UNL1       -0.4684
     13 O          63.9382   80.8854   10.1665 O.3     1  UNL1       -0.4684
     14 C          62.9351   79.7883    9.9670 C.3     1  UNL1        0.2526
     15 C          61.6335   88.3544   10.8923 C.3     1  UNL1        0.0081
     16 C          62.5873   89.4620   11.2292 C.3     1  UNL1        0.0032
     17 C          62.9063   90.5135   10.2082 C.3     1  UNL1        0.0174
     18 C          63.8601   91.6211   10.5451 C.3     1  UNL1        0.0724
     19 N          64.4949   91.6772   11.9030 N.3     1  UNL1       -0.2690
     20 C          64.1758   90.6256   12.9241 C.3     1  UNL1        0.0724
     21 C          63.2220   89.5180   12.5871 C.3     1  UNL1        0.0174
     22 C          65.4486   92.7848   12.2399 C.3     1  UNL1        0.0991
     23 C          66.2856   93.4076   11.1621 C.ar    1  UNL1       -0.0061
     24 C          66.1171   94.8598   10.8267 C.ar    1  UNL1       -0.0029
     25 C          66.9540   95.4827    9.7489 C.ar    1  UNL1       -0.0003
     26 C          67.9594   94.6533    9.0066 C.ar    1  UNL1       -0.0000
     27 C          68.1279   93.2010    9.3420 C.ar    1  UNL1       -0.0003
     28 C          67.2910   92.5782   10.4198 C.ar    1  UNL1       -0.0029
@<TRIPOS>BOND
     1    11    12    1
     2    12     1    1
     3     1     2   ar
     4     2     3   ar
     5     3     4   ar
     6     4     5   ar
     7     5     6   ar
     8     6    13    1
     9    13    14    1
    10     4     7    1
    11     7     8    2
    12     7     9    1
    13     9    15    1
    14    15    16    1
    15    16    17    1
    16    17    18    1
    17    18    19    1
    18    19    22    1
    19    22    23    1
    20    23    24   ar
    21    24    25   ar
    22    25    26   ar
    23    26    27   ar
    24    27    28   ar
    25    19    20    1
    26    20    21    1
    27     9    10    1
    28     6     1   ar
    29    21    16    1
    30    10     3    1
    31    28    23   ar
@<TRIPOS>MOLECULE
*****
 28 31 0 0 0
SMALL
GASTEIGER

@<TRIPOS>ATOM
      1 C          63.4815   82.3847   12.3526 C.ar    1  UNL1        0.1721
      2 C          63.0919   83.6984   12.9628 C.ar    1  UNL1        0.0359
      3 C          62.7642   84.8670   12.0813 C.ar    1  UNL1       -0.0158
      4 C          62.8260   84.7219   10.5897 C.ar    1  UNL1        0.0340
      5 C          63.2156   83.4082    9.9795 C.ar    1  UNL1        0.0426
      6 C          63.5433   82.2396   10.8610 C.ar    1  UNL1        0.1725
      7 C          62.4512   86.0401    9.9798 C.2     1  UNL1        0.1727
      8 O          62.3820   86.3449    8.5128 O.2     1  UNL1       -0.2913
      9 C          62.1578   86.9999   11.0946 C.3     1  UNL1        0.0663
     10 C          62.3512   86.2749   12.3934 C.3     1  UNL1        0.0342
     11 C          62.7125   80.3245   13.7360 C.3     1  UNL1        0.2526
     12 O          63.8093   81.2161   13.2341 O.3     1  UNL1       -0.4684
     13 O          63.9329   80.9259   10.2507 O.3     1  UNL1       -0.4684
     14 C          62.8898   79.8784    9.9963 C.3     1  UNL1        0.2526
     15 C          61.7436   88.4331   10.9379 C.3     1  UNL1        0.0081
     16 C          62.6874   89.5330   11.3245 C.3     1  UNL1        0.0032
     17 C          63.0792   90.5735   10.3175 C.3     1  UNL1        0.0174
     18 C          64.0230   91.6734   10.7040 C.3     1  UNL1        0.0724
     19 N          64.5749   91.7330   12.0976 N.3     1  UNL1       -0.2690
     20 C          64.1830   90.6925   13.1046 C.3     1  UNL1        0.0724
     21 C          63.2392   89.5926   12.7180 C.3     1  UNL1        0.0174
     22 C          65.5186   92.8329   12.4841 C.3     1  UNL1        0.0991
     23 C          66.4714   92.6369   13.6260 C.ar    1  UNL1       -0.0061
     24 C          66.0657   93.0262   15.0166 C.ar    1  UNL1       -0.0029
     25 C          67.0184   92.8302   16.1584 C.ar    1  UNL1       -0.0003
     26 C          68.3770   92.2450   15.9097 C.ar    1  UNL1       -0.0000
     27 C          68.7827   91.8558   14.5191 C.ar    1  UNL1       -0.0003
     28 C          67.8299   92.0517   13.3772 C.ar    1  UNL1       -0.0029
@<TRIPOS>BOND
     1    11    12    1
     2    12     1    1
     3     1     2   ar
     4     2     3   ar
     5     3     4   ar
     6     4     5   ar
     7     5     6   ar
     8     6    13    1
     9    13    14    1
    10     4     7    1
    11     7     8    2
    12     7     9    1
    13     9    15    1
    14    15    16    1
    15    16    17    1
    16    17    18    1
    17    18    19    1
    18    19    22    1
    19    22    23    1
    20    23    24   ar
    21    24    25   ar
    22    25    26   ar
    23    26    27   ar
    24    27    28   ar
    25    19    20    1
    26    20    21    1
    27     9    10    1
    28     6     1   ar
    29    21    16    1
    30    10     3    1
    31    28    23   ar
@<TRIPOS>MOLECULE
*****
 28 31 0 0 0
SMALL
GASTEIGER

@<TRIPOS>ATOM
      1 C          64.1091   83.1653   13.3108 C.ar    1  UNL1        0.1721
      2 C          64.5125   84.0671   14.4395 C.ar    1  UNL1        0.0359
      3 C          64.2255   85.5374   14.3640 C.ar    1  UNL1       -0.0158
      4 C          63.5351   86.1060   13.1599 C.ar    1  UNL1        0.0340
      5 C          63.1317   85.2042   12.0312 C.ar    1  UNL1        0.0426
      6 C          63.4187   83.7338   12.1066 C.ar    1  UNL1        0.1725
      7 C          63.3856   87.5842   13.3661 C.2     1  UNL1        0.1727
      8 O          62.7498   88.5481   12.4088 O.2     1  UNL1       -0.2913
      9 C          63.9837   87.9292   14.6978 C.3     1  UNL1        0.0663
     10 C          64.5028   86.6643   15.3145 C.3     1  UNL1        0.0342
     11 C          63.3116   80.7385   13.7847 C.3     1  UNL1        0.2526
     12 O          64.3962   81.6949   13.3862 O.3     1  UNL1       -0.4684
     13 O          63.0153   82.8320   10.9778 O.3     1  UNL1       -0.4684
     14 C          64.0583   82.2676   10.0593 C.3     1  UNL1        0.2526
     15 C          64.0509   89.2988   15.3059 C.3     1  UNL1        0.0081
     16 C          64.5709   90.4524   14.5004 C.3     1  UNL1        0.0032
     17 C          65.7577   91.2312   14.9854 C.3     1  UNL1        0.0174
     18 C          66.2778   92.3847   14.1799 C.3     1  UNL1        0.0724
     19 N          65.6111   92.7595   12.8895 N.3     1  UNL1       -0.2690
     20 C          64.4244   91.9807   12.4045 C.3     1  UNL1        0.0724
     21 C          63.9043   90.8271   13.2101 C.3     1  UNL1        0.0174
     22 C          66.1312   93.9131   12.0840 C.3     1  UNL1        0.0991
     23 C          66.9005   93.6599   10.8214 C.ar    1  UNL1       -0.0061
     24 C          66.9134   94.6904    9.7316 C.ar    1  UNL1       -0.0029
     25 C          67.6827   94.4372    8.4690 C.ar    1  UNL1       -0.0003
     26 C          68.4391   93.1535    8.2963 C.ar    1  UNL1       -0.0000
     27 C          68.4262   92.1230    9.3861 C.ar    1  UNL1       -0.0003
     28 C          67.6569   92.3762   10.6487 C.ar    1  UNL1       -0.0029
@<TRIPOS>BOND
     1    11    12    1
     2    12     1    1
     3     1     2   ar
     4     2     3   ar
     5     3     4   ar
     6     4     5   ar
     7     5     6   ar
     8     6    13    1
     9    13    14    1
    10     4     7    1
    11     7     8    2
    12     7     9    1
    13     9    15    1
    14    15    16    1
    15    16    17    1
    16    17    18    1
    17    18    19    1
    18    19    22    1
    19    22    23    1
    20    23    24   ar
    21    24    25   ar
    22    25    26   ar
    23    26    27   ar
    24    27    28   ar
    25    19    20    1
    26    20    21    1
    27     9    10    1
    28     6     1   ar
    29    21    16    1
    30    10     3    1
    31    28    23   ar
@<TRIPOS>MOLECULE
*****
 28 31 0 0 0
SMALL
GASTEIGER

@<TRIPOS>ATOM
      1 C          62.0081   85.8289   10.5441 C.ar    1  UNL1        0.1721
      2 C          62.2101   87.2879   10.8273 C.ar    1  UNL1        0.0359
      3 C          62.9563   87.7172   12.0557 C.ar    1  UNL1       -0.0158
      4 C          63.5005   86.6875   13.0008 C.ar    1  UNL1        0.0340
      5 C          63.2985   85.2284   12.7176 C.ar    1  UNL1        0.0426
      6 C          62.5523   84.7991   11.4893 C.ar    1  UNL1        0.1725
      7 C          64.1893   87.4062   14.1229 C.2     1  UNL1        0.1727
      8 O          64.8761   86.7637   15.2914 O.2     1  UNL1       -0.2913
      9 C          64.0708   88.8802   13.8712 C.3     1  UNL1        0.0663
     10 C          63.3088   89.0725   12.5936 C.3     1  UNL1        0.0342
     11 C          60.5001   86.4095    8.5097 C.3     1  UNL1        0.2526
     12 O          61.2619   85.3996    9.3158 O.3     1  UNL1       -0.4684
     13 O          62.3503   83.3399   11.2061 O.3     1  UNL1       -0.4684
     14 C          63.5290   82.4664   10.8938 C.3     1  UNL1        0.2526
     15 C          64.6183   89.9705   14.7439 C.3     1  UNL1        0.0081
     16 C          65.0955   91.2535   14.1308 C.3     1  UNL1        0.0032
     17 C          64.6979   91.6081   12.7286 C.3     1  UNL1        0.0174
     18 C          65.1751   92.8912   12.1154 C.3     1  UNL1        0.0724
     19 N          66.0499   93.8197   12.9045 N.3     1  UNL1       -0.2690
     20 C          66.4475   93.4652   14.3067 C.3     1  UNL1        0.0724
     21 C          65.9703   92.1820   14.9198 C.3     1  UNL1        0.0174
     22 C          66.5271   95.1028   12.2913 C.3     1  UNL1        0.0991
     23 C          66.5747   95.2489   10.7992 C.ar    1  UNL1       -0.0061
     24 C          65.7481   96.3015   10.1219 C.ar    1  UNL1       -0.0029
     25 C          65.7957   96.4476    8.6298 C.ar    1  UNL1       -0.0003
     26 C          66.6698   95.5410    7.8150 C.ar    1  UNL1       -0.0000
     27 C          67.4963   94.4883    8.4923 C.ar    1  UNL1       -0.0003
     28 C          67.4487   94.3423    9.9844 C.ar    1  UNL1       -0.0029
@<TRIPOS>BOND
     1    11    12    1
     2    12     1    1
     3     1     2   ar
     4     2     3   ar
     5     3     4   ar
     6     4     5   ar
     7     5     6   ar
     8     6    13    1
     9    13    14    1
    10     4     7    1
    11     7     8    2
    12     7     9    1
    13     9    15    1
    14    15    16    1
    15    16    17    1
    16    17    18    1
    17    18    19    1
    18    19    22    1
    19    22    23    1
    20    23    24   ar
    21    24    25   ar
    22    25    26   ar
    23    26    27   ar
    24    27    28   ar
    25    19    20    1
    26    20    21    1
    27     9    10    1
    28     6     1   ar
    29    21    16    1
    30    10     3    1
    31    28    23   ar
@<TRIPOS>MOLECULE
*****
 28 31 0 0 0
SMALL
GASTEIGER

@<TRIPOS>ATOM
      1 C          62.5849   86.0029   11.2300 C.ar    1  UNL1        0.1721
      2 C          61.7415   85.6987   10.0274 C.ar    1  UNL1        0.0359
      3 C          60.9467   86.7898    9.3733 C.ar    1  UNL1       -0.0158
      4 C          60.9952   88.1851    9.9218 C.ar    1  UNL1        0.0340
      5 C          61.8385   88.4892   11.1244 C.ar    1  UNL1        0.0426
      6 C          62.6333   87.3982   11.7785 C.ar    1  UNL1        0.1725
      7 C          60.1107   89.0482    9.0718 C.2     1  UNL1        0.1727
      8 O          59.8646   90.5156    9.2622 O.2     1  UNL1       -0.2913
      9 C          59.5155   88.1865    7.9980 C.3     1  UNL1        0.0663
     10 C          60.0322   86.7907    8.1843 C.3     1  UNL1        0.0342
     11 C          62.7749   84.1065   12.9956 C.3     1  UNL1        0.2526
     12 O          63.3797   84.9119   11.8841 O.3     1  UNL1       -0.4684
     13 O          63.4767   87.7024   12.9811 O.3     1  UNL1       -0.4684
     14 C          63.8261   89.1230   13.3121 C.3     1  UNL1        0.2526
     15 C          58.5697   88.6408    6.9260 C.3     1  UNL1        0.0081
     16 C          58.9182   89.8219    6.0696 C.3     1  UNL1        0.0032
     17 C          60.3499   90.0947    5.7148 C.3     1  UNL1        0.0174
     18 C          60.6984   91.2759    4.8584 C.3     1  UNL1        0.0724
     19 N          59.6152   92.1843    4.3568 N.3     1  UNL1       -0.2690
     20 C          58.1835   91.9115    4.7116 C.3     1  UNL1        0.0724
     21 C          57.8350   90.7303    5.5680 C.3     1  UNL1        0.0174
     22 C          59.9637   93.3654    3.5004 C.3     1  UNL1        0.0991
     23 C          60.3823   93.1606    2.0746 C.ar    1  UNL1       -0.0061
     24 C          59.3442   93.0158    1.0016 C.ar    1  UNL1       -0.0029
     25 C          59.7627   92.8110   -0.4242 C.ar    1  UNL1       -0.0003
     26 C          61.2194   92.7510   -0.7769 C.ar    1  UNL1       -0.0000
     27 C          62.2575   92.8958    0.2960 C.ar    1  UNL1       -0.0003
     28 C          61.8389   93.1006    1.7218 C.ar    1  UNL1       -0.0029
@<TRIPOS>BOND
     1    11    12    1
     2    12     1    1
     3     1     2   ar
     4     2     3   ar
     5     3     4   ar
     6     4     5   ar
     7     5     6   ar
     8     6    13    1
     9    13    14    1
    10     4     7    1
    11     7     8    2
    12     7     9    1
    13     9    15    1
    14    15    16    1
    15    16    17    1
    16    17    18    1
    17    18    19    1
    18    19    22    1
    19    22    23    1
    20    23    24   ar
    21    24    25   ar
    22    25    26   ar
    23    26    27   ar
    24    27    28   ar
    25    19    20    1
    26    20    21    1
    27     9    10    1
    28     6     1   ar
    29    21    16    1
    30    10     3    1
    31    28    23   ar
