@<TRIPOS>MOLECULE
*****
 38 41 0 0 0
SMALL
GASTEIGER

@<TRIPOS>ATOM
      1 C          62.8389   84.0409   11.3243 C.3     1  UNL1        0.1532
      2 C          63.6611   83.9216   12.5733 C.3     1  UNL1        0.0553
      3 C          64.4064   84.3817   13.7910 C.ar    1  UNL1       -0.0190
      4 C          65.2166   84.4579   15.0510 C.ar    1  UNL1       -0.0010
      5 C          65.4967   85.7890   15.6831 C.ar    1  UNL1        0.0375
      6 C          64.9666   87.0439   15.0552 C.ar    1  UNL1        0.1490
      7 C          64.1564   86.9677   13.7952 C.ar    1  UNL1        0.0912
      8 CL         63.6263   88.2226   13.1673 Cl      1  UNL1       -0.0791
      9 C          63.8763   85.6366   13.1631 C.ar    1  UNL1        0.0103
     10 O          64.8550   89.5948   15.2674 O.3     1  UNL1       -0.4746
     11 C          64.2472   90.7329   14.5023 C.3     1  UNL1        0.2056
     12 C          63.4734   91.4134   13.4123 C.3     1  UNL1        0.0512
     13 C          62.6512   91.5327   12.1633 C.3     1  UNL1        0.0512
     14 C          61.9059   91.0726   10.9456 C.3     1  UNL1        0.2055
     15 O          61.3510   90.1032    9.9445 O.3     1  UNL1       -0.4753
     16 C          61.0708   88.7721    9.3123 C.ar    1  UNL1        0.1428
     17 C          60.3402   89.6205    8.3142 C.ar    1  UNL1        0.0409
     18 C          59.6468   88.9787    7.1491 C.ar    1  UNL1        0.0744
     19 C          59.6842   87.4885    6.9823 C.ar    1  UNL1        0.0042
     20 C          60.4148   86.6401    7.9804 C.ar    1  UNL1        0.0075
     21 C          61.1082   87.2819    9.1455 C.ar    1  UNL1        0.0872
     22 C          61.4573   85.8595    9.4692 C.2     1  UNL1        0.2491
     23 O          60.7944   85.1307    8.3381 O.2     1  UNL1       -0.2700
     24 N          62.0650   84.7213   10.2343 N.am    1  UNL1       -0.2945
     25 H          61.7856   83.9516    9.6878 H       1  UNL1        0.1501
     26 N          62.9194   81.5158   11.9304 N.am    1  UNL1       -0.2945
     27 C          62.7151   82.6026   10.9170 C.2     1  UNL1        0.2413
     28 O          62.3870   82.2510    9.4961 O.2     1  UNL1       -0.2733
     29 H          63.1348   81.7466   12.8630 H       1  UNL1        0.1503
     30 C          62.7957   80.0775   11.5232 C.3     1  UNL1        0.1365
     31 C          62.7800   78.8548   10.6543 C.3     1  UNL1        0.0353
     32 C          63.0640   80.1992   10.0524 C.3     1  UNL1        0.0353
     33 N          62.1731   78.8351   14.1819 N.1     1  UNL1       -0.1943
     34 C          62.4843   79.4562   12.8526 C.1     1  UNL1        0.0896
     35 C          58.9162   89.8271    6.1510 C.3     1  UNL1        0.4187
     36 F          58.1855   90.6755    5.1529 F       1  UNL1       -0.1659
     37 F          60.2261   90.2952    5.5900 F       1  UNL1       -0.1659
     38 F          57.6062   89.3589    6.7120 F       1  UNL1       -0.1659
@<TRIPOS>BOND
     1    33    34    3
     2    34    30    1
     3    30    26    1
     4    26    27   am
     5    27    28    2
     6     1    27    1
     7     1     2    1
     8     2     3    1
     9     3     4   ar
    10     4     5   ar
    11     5     6   ar
    12     6     7   ar
    13     7     8    1
    14     7     9   ar
    15     6    10    1
    16    10    11    1
    17    11    12    1
    18    12    13    1
    19    13    14    1
    20    14    15    1
    21    15    16    1
    22    16    17   ar
    23    17    18   ar
    24    18    35    1
    25    35    36    1
    26    35    37    1
    27    35    38    1
    28    18    19   ar
    29    19    20   ar
    30    20    21   ar
    31    21    22    1
    32    22    23    2
    33    22    24   am
    34    30    31    1
    35    31    32    1
    36    32    30    1
    37    24     1    1
    38     9     3   ar
    39    21    16   ar
    40    26    29    1
    41    24    25    1
@<TRIPOS>MOLECULE
*****
 38 41 0 0 0
SMALL
GASTEIGER

@<TRIPOS>ATOM
      1 C          59.0209   93.2238   -2.1969 C.3     1  UNL1        0.1532
      2 C          58.5671   92.8484   -0.8172 C.3     1  UNL1        0.0553
      3 C          58.6609   92.6518    0.6669 C.ar    1  UNL1       -0.0190
      4 C          58.3860   92.3309    2.1061 C.ar    1  UNL1       -0.0010
      5 C          59.4506   92.5496    3.1399 C.ar    1  UNL1        0.0375
      6 C          60.7901   93.0892    2.7344 C.ar    1  UNL1        0.1490
      7 C          61.0650   93.4101    1.2952 C.ar    1  UNL1        0.0912
      8 CL         62.4046   93.9498    0.8897 Cl      1  UNL1       -0.0791
      9 C          60.0004   93.1914    0.2614 C.ar    1  UNL1        0.0103
     10 O          63.1046   93.7806    3.5887 O.3     1  UNL1       -0.4746
     11 C          64.3732   94.3234    3.0003 C.3     1  UNL1        0.2056
     12 C          65.3053   94.8202    1.9352 C.3     1  UNL1        0.0512
     13 C          65.7591   95.1955    0.5556 C.3     1  UNL1        0.0512
     14 C          65.6653   95.3921   -0.9285 C.3     1  UNL1        0.2055
     15 O          65.0384   95.3802   -2.2911 O.3     1  UNL1       -0.4753
     16 C          63.9738   95.1615   -3.3249 C.ar    1  UNL1        0.1428
     17 C          65.0368   95.6826   -4.2459 C.ar    1  UNL1        0.0409
     18 C          64.7596   95.8115   -5.7144 C.ar    1  UNL1        0.0744
     19 C          63.4194   95.4193   -6.2619 C.ar    1  UNL1        0.0042
     20 C          62.3563   94.8982   -5.3409 C.ar    1  UNL1        0.0075
     21 C          62.6335   94.7693   -3.8724 C.ar    1  UNL1        0.0872
     22 C          61.2216   94.2633   -3.8502 C.2     1  UNL1        0.2491
     23 O          60.8542   94.3575   -5.3015 O.2     1  UNL1       -0.2700
     24 N          59.9529   93.7206   -3.2619 N.am    1  UNL1       -0.2945
     25 H          59.3870   93.6434   -4.0638 H       1  UNL1        0.1501
     26 N          57.9271   92.2649   -4.3495 N.am    1  UNL1       -0.2945
     27 C          57.7949   92.9123   -3.0029 C.2     1  UNL1        0.2413
     28 O          56.4365   93.2483   -2.4625 O.2     1  UNL1       -0.2733
     29 H          58.8186   92.0444   -4.7043 H       1  UNL1        0.1503
     30 C          56.7011   91.9534   -5.1557 C.3     1  UNL1        0.1365
     31 C          55.6979   91.9978   -6.2700 C.3     1  UNL1        0.0353
     32 C          56.9171   92.8702   -6.3231 C.3     1  UNL1        0.0353
     33 N          55.4176   89.9035   -3.3808 N.1     1  UNL1       -0.1943
     34 C          56.0593   90.9284   -4.2682 C.1     1  UNL1        0.0896
     35 C          65.8227   96.3326   -6.6354 C.3     1  UNL1        0.4187
     36 F          66.8858   96.8538   -7.5564 F       1  UNL1       -0.1659
     37 F          64.7645   96.8559   -7.5608 F       1  UNL1       -0.1659
     38 F          66.8809   95.8093   -5.7100 F       1  UNL1       -0.1659
@<TRIPOS>BOND
     1    33    34    3
     2    34    30    1
     3    30    26    1
     4    26    27   am
     5    27    28    2
     6     1    27    1
     7     1     2    1
     8     2     3    1
     9     3     4   ar
    10     4     5   ar
    11     5     6   ar
    12     6     7   ar
    13     7     8    1
    14     7     9   ar
    15     6    10    1
    16    10    11    1
    17    11    12    1
    18    12    13    1
    19    13    14    1
    20    14    15    1
    21    15    16    1
    22    16    17   ar
    23    17    18   ar
    24    18    35    1
    25    35    36    1
    26    35    37    1
    27    35    38    1
    28    18    19   ar
    29    19    20   ar
    30    20    21   ar
    31    21    22    1
    32    22    23    2
    33    22    24   am
    34    30    31    1
    35    31    32    1
    36    32    30    1
    37    24     1    1
    38     9     3   ar
    39    21    16   ar
    40    26    29    1
    41    24    25    1
@<TRIPOS>MOLECULE
*****
 38 41 0 0 0
SMALL
GASTEIGER

@<TRIPOS>ATOM
      1 C          61.0099   88.5359    8.8151 C.3     1  UNL1        0.1532
      2 C          60.8860   87.3283    7.9339 C.3     1  UNL1        0.0553
      3 C          61.0756   85.9057    7.4978 C.ar    1  UNL1       -0.0190
      4 C          61.0565   84.6038    6.7531 C.ar    1  UNL1       -0.0010
      5 C          61.7433   83.4006    7.3282 C.ar    1  UNL1        0.0375
      6 C          62.4491   83.4994    8.6480 C.ar    1  UNL1        0.1490
      7 C          62.4683   84.8013    9.3927 C.ar    1  UNL1        0.0912
      8 CL         63.1741   84.9001   10.7126 Cl      1  UNL1       -0.0791
      9 C          61.7815   86.0044    8.8176 C.ar    1  UNL1        0.0103
     10 O          63.8129   82.2005   10.3851 O.3     1  UNL1       -0.4746
     11 C          64.4625   82.4873   11.7065 C.3     1  UNL1        0.2056
     12 C          64.8810   83.2960   12.8984 C.3     1  UNL1        0.0512
     13 C          65.0050   84.5035   13.7796 C.3     1  UNL1        0.0512
     14 C          64.8153   85.9261   14.2158 C.3     1  UNL1        0.2055
     15 O          64.3410   87.3471   14.1405 O.3     1  UNL1       -0.4753
     16 C          63.6542   88.5503   13.5654 C.ar    1  UNL1        0.1428
     17 C          64.1588   89.1951   14.8222 C.ar    1  UNL1        0.0409
     18 C          63.8688   90.6419   15.0916 C.ar    1  UNL1        0.0744
     19 C          63.0742   91.4440   14.1041 C.ar    1  UNL1        0.0042
     20 C          62.5695   90.7992   12.8473 C.ar    1  UNL1        0.0075
     21 C          62.8596   89.3524   12.5779 C.ar    1  UNL1        0.0872
     22 C          62.0780   89.6313   11.3284 C.2     1  UNL1        0.2491
     23 O          61.7395   91.0810   11.5124 O.2     1  UNL1       -0.2700
     24 N          61.4284   89.3446   10.0070 N.am    1  UNL1       -0.2945
     25 H          61.0399   90.2227    9.7895 H       1  UNL1        0.1501
     26 N          60.1215   89.4023    6.5326 N.am    1  UNL1       -0.2945
     27 C          60.2547   89.5581    8.0185 C.2     1  UNL1        0.2413
     28 O          59.6325   90.7362    8.7077 O.2     1  UNL1       -0.2733
     29 H          60.5298   88.6291    6.0802 H       1  UNL1        0.1503
     30 C          59.3663   90.4245    5.7359 C.3     1  UNL1        0.1365
     31 C          58.2180   91.2288    5.2024 C.3     1  UNL1        0.0353
     32 C          57.9721   90.1519    6.2173 C.3     1  UNL1        0.0353
     33 N          61.6302   91.6797    4.2196 N.1     1  UNL1       -0.1943
     34 C          60.4983   91.0522    4.9777 C.1     1  UNL1        0.0896
     35 C          64.3734   91.2866   16.3484 C.3     1  UNL1        0.4187
     36 F          64.8781   91.9314   17.6052 F       1  UNL1       -0.1659
     37 F          63.4403   90.4368   17.1590 F       1  UNL1       -0.1659
     38 F          65.3065   92.1365   15.5378 F       1  UNL1       -0.1659
@<TRIPOS>BOND
     1    33    34    3
     2    34    30    1
     3    30    26    1
     4    26    27   am
     5    27    28    2
     6     1    27    1
     7     1     2    1
     8     2     3    1
     9     3     4   ar
    10     4     5   ar
    11     5     6   ar
    12     6     7   ar
    13     7     8    1
    14     7     9   ar
    15     6    10    1
    16    10    11    1
    17    11    12    1
    18    12    13    1
    19    13    14    1
    20    14    15    1
    21    15    16    1
    22    16    17   ar
    23    17    18   ar
    24    18    35    1
    25    35    36    1
    26    35    37    1
    27    35    38    1
    28    18    19   ar
    29    19    20   ar
    30    20    21   ar
    31    21    22    1
    32    22    23    2
    33    22    24   am
    34    30    31    1
    35    31    32    1
    36    32    30    1
    37    24     1    1
    38     9     3   ar
    39    21    16   ar
    40    26    29    1
    41    24    25    1
@<TRIPOS>MOLECULE
*****
 38 41 0 0 0
SMALL
GASTEIGER

@<TRIPOS>ATOM
      1 C          63.5754   88.6398   13.9205 C.3     1  UNL1        0.1532
      2 C          64.2903   87.6163   14.7521 C.3     1  UNL1        0.0553
      3 C          64.8410   86.2712   15.1230 C.ar    1  UNL1       -0.0190
      4 C          65.5123   85.1203   15.8119 C.ar    1  UNL1       -0.0010
      5 C          65.5209   83.7642   15.1709 C.ar    1  UNL1        0.0375
      6 C          64.8581   83.5591   13.8410 C.ar    1  UNL1        0.1490
      7 C          64.1868   84.7100   13.1520 C.ar    1  UNL1        0.0912
      8 CL         63.5241   84.5049   11.8221 Cl      1  UNL1       -0.0791
      9 C          64.1782   86.0661   13.7930 C.ar    1  UNL1        0.0103
     10 O          64.3269   81.8366   12.0201 O.3     1  UNL1       -0.4746
     11 C          63.6186   81.8222   10.6979 C.3     1  UNL1        0.2056
     12 C          62.8483   82.3682    9.5324 C.3     1  UNL1        0.0512
     13 C          62.1335   83.3917    8.7008 C.3     1  UNL1        0.0512
     14 C          61.5828   84.7367    8.3299 C.3     1  UNL1        0.2055
     15 O          61.2801   86.1985    8.4760 O.3     1  UNL1       -0.4753
     16 C          61.2715   87.5547    9.1170 C.ar    1  UNL1        0.1428
     17 C          60.5090   87.9191    7.8778 C.ar    1  UNL1        0.0409
     18 C          60.0333   89.3274    7.6768 C.ar    1  UNL1        0.0744
     19 C          60.3201   90.3713    8.7150 C.ar    1  UNL1        0.0042
     20 C          61.0826   90.0069    9.9542 C.ar    1  UNL1        0.0075
     21 C          61.5583   88.5986   10.1553 C.ar    1  UNL1        0.0872
     22 C          62.0969   89.1713   11.4327 C.2     1  UNL1        0.2491
     23 O          61.6618   90.6023   11.3182 O.2     1  UNL1       -0.2700
     24 N          62.8052   89.1859   12.7549 N.am    1  UNL1       -0.2945
     25 H          62.7010   90.1288   13.0183 H       1  UNL1        0.1501
     26 N          64.9888   90.6582   14.7438 N.am    1  UNL1       -0.2945
     27 C          63.7172   89.8633   14.7765 C.2     1  UNL1        0.2413
     28 O          62.5875   90.2919   15.6654 O.2     1  UNL1       -0.2733
     29 H          65.7303   90.3769   14.1605 H       1  UNL1        0.1503
     30 C          65.1307   91.8818   15.5999 C.3     1  UNL1        0.1365
     31 C          64.9481   92.8251   16.7518 C.3     1  UNL1        0.0353
     32 C          64.2456   91.4997   16.7491 C.3     1  UNL1        0.0353
     33 N          66.9996   93.4956   13.8962 N.1     1  UNL1       -0.1943
     34 C          66.0652   92.6887   14.7480 C.1     1  UNL1        0.0896
     35 C          59.2708   89.6917    6.4375 C.3     1  UNL1        0.4187
     36 F          58.5083   90.0561    5.1982 F       1  UNL1       -0.1659
     37 F          58.0813   88.9326    6.9462 F       1  UNL1       -0.1659
     38 F          60.4603   90.4509    5.9288 F       1  UNL1       -0.1659
@<TRIPOS>BOND
     1    33    34    3
     2    34    30    1
     3    30    26    1
     4    26    27   am
     5    27    28    2
     6     1    27    1
     7     1     2    1
     8     2     3    1
     9     3     4   ar
    10     4     5   ar
    11     5     6   ar
    12     6     7   ar
    13     7     8    1
    14     7     9   ar
    15     6    10    1
    16    10    11    1
    17    11    12    1
    18    12    13    1
    19    13    14    1
    20    14    15    1
    21    15    16    1
    22    16    17   ar
    23    17    18   ar
    24    18    35    1
    25    35    36    1
    26    35    37    1
    27    35    38    1
    28    18    19   ar
    29    19    20   ar
    30    20    21   ar
    31    21    22    1
    32    22    23    2
    33    22    24   am
    34    30    31    1
    35    31    32    1
    36    32    30    1
    37    24     1    1
    38     9     3   ar
    39    21    16   ar
    40    26    29    1
    41    24    25    1
