@<TRIPOS>MOLECULE
*****
 35 39 0 0 0
SMALL
GASTEIGER

@<TRIPOS>ATOM
      1 C          61.8470   89.6235   11.3804 C.2     1  UNL1        0.2368
      2 O          62.8344   89.7544   10.2589 O.2     1  UNL1       -0.2737
      3 N          62.2148   90.0811   12.7607 N.am    1  UNL1       -0.3049
      4 H          61.5667   89.9951   13.4968 H       1  UNL1        0.1494
      5 C          63.5700   90.6695   13.0196 C.3     1  UNL1        0.0715
      6 C          64.2198   91.5400   11.9851 C.3     1  UNL1        0.0184
      7 C          64.9253   91.2580   13.2784 C.3     1  UNL1        0.0017
      8 C          66.2805   91.8464   13.5373 C.3     1  UNL1        0.0006
      9 C          65.6308   90.9760   14.5718 C.3     1  UNL1        0.0017
     10 C          64.2755   90.3875   14.3130 C.3     1  UNL1        0.0184
     11 C          66.2569   92.3335   12.5534 C.3     1  UNL1        0.0102
     12 C          66.2248   92.9988   11.2095 C.3     1  UNL1        0.0687
     13 C          66.9303   92.7168   12.5028 C.3     1  UNL1        0.0086
     14 C          64.8695   92.4104   10.9506 C.3     1  UNL1        0.0102
     15 C          66.8746   93.8693   10.1750 C.2     1  UNL1        0.2184
     16 N          66.0836   94.9506    9.5005 N.am    1  UNL1       -0.3288
     17 O          68.3153   93.6583    9.8149 O.2     1  UNL1       -0.2754
     18 H          65.1379   95.0891    9.7368 H       1  UNL1        0.1449
     19 H          66.5100   95.5219    8.8216 H       1  UNL1        0.1449
     20 C          60.4917   89.0351   11.1215 C.3     1  UNL1        0.1341
     21 C          59.0135   88.8014   11.2238 C.3     1  UNL1        0.0271
     22 C          59.6672   89.8523   12.0714 C.3     1  UNL1        0.0271
     23 N          60.8456   88.0135   10.0818 N.3     1  UNL1       -0.1484
     24 C          60.4400   88.2255    8.6533 C.3     1  UNL1        0.1153
     25 S          61.6053   86.7799   10.4705 S.O2    1  UNL1        0.0637
     26 O          62.3122   86.7983    9.1476 O.2     1  UNL1       -0.1528
     27 O          60.8984   86.7614   11.7934 O.2     1  UNL1       -0.1528
     28 C          64.6439   81.8453   12.0254 C.3     1  UNL1        0.0334
     29 C          63.8842   83.0790   11.6367 C.ar    1  UNL1        0.0057
     30 C          63.8212   83.4988   10.1980 C.ar    1  UNL1       -0.0007
     31 C          63.0616   84.7324    9.8093 C.ar    1  UNL1        0.0197
     32 C          62.3649   85.5462   10.8592 C.ar    1  UNL1        0.1244
     33 C          62.4279   85.1264   12.2979 C.ar    1  UNL1        0.0492
     34 C          63.1876   83.8928   12.6867 C.ar    1  UNL1        0.1375
     35 F          63.2506   83.4730   14.1253 F       1  UNL1       -0.2045
@<TRIPOS>BOND
     1    28    29    1
     2    29    30   ar
     3    30    31   ar
     4    31    32   ar
     5    32    25    1
     6    25    26    2
     7    25    27    2
     8    25    23    1
     9    23    24    1
    10    23    20    1
    11    20     1    1
    12     1     2    2
    13     1     3   am
    14     5     3    1
    15     5     6    1
    16     6     7    1
    17     7     8    1
    18     8     9    1
    19     9    10    1
    20    10    11    1
    21    11    12    1
    22    12    15    1
    23    15    16   am
    24    15    17    2
    25    12    13    1
    26    12    14    1
    27    20    21    1
    28    21    22    1
    29    32    33   ar
    30    33    34   ar
    31    34    35    1
    32    34    29   ar
    33    22    20    1
    34    10     5    1
    35    14     6    1
    36    13     8    1
    37     3     4    1
    38    16    18    1
    39    16    19    1
@<TRIPOS>MOLECULE
*****
 35 39 0 0 0
SMALL
GASTEIGER

@<TRIPOS>ATOM
      1 C          61.0449   87.5276   10.1729 C.2     1  UNL1        0.2368
      2 O          60.6281   86.9917   11.5104 O.2     1  UNL1       -0.2737
      3 N          62.1093   86.8260    9.3824 N.am    1  UNL1       -0.3049
      4 H          62.3829   87.1778    8.5045 H       1  UNL1        0.1494
      5 C          62.7570   85.5886    9.9295 C.3     1  UNL1        0.0715
      6 C          62.9053   85.4124   11.4117 C.3     1  UNL1        0.0184
      7 C          63.4046   84.3511   10.4766 C.3     1  UNL1        0.0017
      8 C          64.0522   83.1137   11.0237 C.3     1  UNL1        0.0006
      9 C          63.9039   83.2899    9.5415 C.3     1  UNL1        0.0017
     10 C          63.2562   84.5273    8.9943 C.3     1  UNL1        0.0184
     11 C          63.9039   83.4879   12.0453 C.3     1  UNL1        0.0102
     12 C          63.7013   83.9988   13.4410 C.3     1  UNL1        0.0687
     13 C          64.2006   82.9376   12.5059 C.3     1  UNL1        0.0086
     14 C          63.0537   85.2363   12.8939 C.3     1  UNL1        0.0102
     15 C          63.8497   83.8226   14.9232 C.2     1  UNL1        0.2184
     16 N          64.6441   84.8142   15.7206 N.am    1  UNL1       -0.3288
     17 O          63.2038   82.6548   15.6081 O.2     1  UNL1       -0.2754
     18 H          65.0680   85.5806   15.2711 H       1  UNL1        0.1449
     19 H          64.7414   84.6985   16.6934 H       1  UNL1        0.1449
     20 C          60.3973   88.7650    9.6257 C.3     1  UNL1        0.1341
     21 C          59.7281   89.6957    8.6582 C.3     1  UNL1        0.0271
     22 C          60.1104   88.3113    8.2251 C.3     1  UNL1        0.0271
     23 N          60.4594   89.6484   10.8364 N.3     1  UNL1       -0.1484
     24 C          59.2076   89.9620   11.6011 C.3     1  UNL1        0.1153
     25 S          61.7733   90.2183   11.2824 S.O2    1  UNL1        0.0637
     26 O          62.0568   90.6635    9.8783 O.2     1  UNL1       -0.1528
     27 O          61.4898   89.7730   12.6865 O.2     1  UNL1       -0.1528
     28 C          67.0290   92.4975   13.0664 C.3     1  UNL1        0.0334
     29 C          65.7150   91.9277   12.6204 C.ar    1  UNL1        0.0057
     30 C          65.2074   92.2069   11.2368 C.ar    1  UNL1       -0.0007
     31 C          63.8935   91.6371   10.7909 C.ar    1  UNL1        0.0197
     32 C          63.0873   90.7881   11.7284 C.ar    1  UNL1        0.1244
     33 C          63.5949   90.5089   13.1120 C.ar    1  UNL1        0.0492
     34 C          64.9088   91.0787   13.5580 C.ar    1  UNL1        0.1375
     35 F          65.4165   90.7994   14.9416 F       1  UNL1       -0.2045
@<TRIPOS>BOND
     1    28    29    1
     2    29    30   ar
     3    30    31   ar
     4    31    32   ar
     5    32    25    1
     6    25    26    2
     7    25    27    2
     8    25    23    1
     9    23    24    1
    10    23    20    1
    11    20     1    1
    12     1     2    2
    13     1     3   am
    14     5     3    1
    15     5     6    1
    16     6     7    1
    17     7     8    1
    18     8     9    1
    19     9    10    1
    20    10    11    1
    21    11    12    1
    22    12    15    1
    23    15    16   am
    24    15    17    2
    25    12    13    1
    26    12    14    1
    27    20    21    1
    28    21    22    1
    29    32    33   ar
    30    33    34   ar
    31    34    35    1
    32    34    29   ar
    33    22    20    1
    34    10     5    1
    35    14     6    1
    36    13     8    1
    37     3     4    1
    38    16    18    1
    39    16    19    1
@<TRIPOS>MOLECULE
*****
 35 39 0 0 0
SMALL
GASTEIGER

@<TRIPOS>ATOM
      1 C          62.7706   83.7452   14.4666 C.2     1  UNL1        0.2368
      2 O          61.3596   84.2396   14.5867 O.2     1  UNL1       -0.2737
      3 N          63.8945   84.5294   15.0763 N.am    1  UNL1       -0.3049
      4 H          64.8207   84.2049   14.9976 H       1  UNL1        0.1494
      5 C          63.6074   85.8081   15.8060 C.3     1  UNL1        0.0715
      6 C          63.8956   87.1264   15.1510 C.3     1  UNL1        0.0184
      7 C          63.3203   87.0869   16.5358 C.3     1  UNL1        0.0017
      8 C          63.0332   88.3655   17.2655 C.3     1  UNL1        0.0006
      9 C          62.7450   87.0473   17.9205 C.3     1  UNL1        0.0017
     10 C          63.0321   85.7685   17.1908 C.3     1  UNL1        0.0184
     11 C          63.3982   88.9394   16.4033 C.3     1  UNL1        0.0102
     12 C          63.8967   89.7234   15.2257 C.3     1  UNL1        0.0687
     13 C          63.3214   89.6838   16.6105 C.3     1  UNL1        0.0086
     14 C          64.1838   88.4447   14.4960 C.3     1  UNL1        0.0102
     15 C          64.1849   91.0417   14.5707 C.2     1  UNL1        0.2184
     16 N          63.5754   91.3668   13.2393 N.am    1  UNL1       -0.3288
     17 O          65.0826   92.0349   15.2472 O.2     1  UNL1       -0.2754
     18 H          62.9862   90.7150   12.7953 H       1  UNL1        0.1449
     19 H          63.7645   92.2321   12.8094 H       1  UNL1        0.1449
     20 C          63.0578   82.4664   13.7369 C.3     1  UNL1        0.1341
     21 C          63.1097   80.9987   13.4318 C.3     1  UNL1        0.0271
     22 C          62.4802   81.4781   14.7062 C.3     1  UNL1        0.0271
     23 N          63.7351   83.0108   12.5143 N.3     1  UNL1       -0.1484
     24 C          65.0913   82.5053   12.1202 C.3     1  UNL1        0.1153
     25 S          63.0562   84.0609   11.6856 S.O2    1  UNL1        0.0637
     26 O          62.1782   83.0100   11.0733 O.2     1  UNL1       -0.1528
     27 O          63.9342   85.1117   12.2979 O.2     1  UNL1       -0.1528
     28 C          60.3407   88.2610    8.3712 C.3     1  UNL1        0.0334
     29 C          61.0196   87.2109    9.1998 C.ar    1  UNL1        0.0057
     30 C          61.9939   86.2657    8.5615 C.ar    1  UNL1       -0.0007
     31 C          62.6727   85.2158    9.3902 C.ar    1  UNL1        0.0197
     32 C          62.3773   85.1109   10.8570 C.ar    1  UNL1        0.1244
     33 C          61.4031   86.0561   11.4953 C.ar    1  UNL1        0.0492
     34 C          60.7242   87.1062   10.6667 C.ar    1  UNL1        0.1375
     35 F          59.7500   88.0514   11.3050 F       1  UNL1       -0.2045
@<TRIPOS>BOND
     1    28    29    1
     2    29    30   ar
     3    30    31   ar
     4    31    32   ar
     5    32    25    1
     6    25    26    2
     7    25    27    2
     8    25    23    1
     9    23    24    1
    10    23    20    1
    11    20     1    1
    12     1     2    2
    13     1     3   am
    14     5     3    1
    15     5     6    1
    16     6     7    1
    17     7     8    1
    18     8     9    1
    19     9    10    1
    20    10    11    1
    21    11    12    1
    22    12    15    1
    23    15    16   am
    24    15    17    2
    25    12    13    1
    26    12    14    1
    27    20    21    1
    28    21    22    1
    29    32    33   ar
    30    33    34   ar
    31    34    35    1
    32    34    29   ar
    33    22    20    1
    34    10     5    1
    35    14     6    1
    36    13     8    1
    37     3     4    1
    38    16    18    1
    39    16    19    1
@<TRIPOS>MOLECULE
*****
 35 39 0 0 0
SMALL
GASTEIGER

@<TRIPOS>ATOM
      1 C          61.8034   87.4204   11.3645 C.2     1  UNL1        0.2368
      2 O          60.8523   86.2652   11.4687 O.2     1  UNL1       -0.2737
      3 N          63.0997   87.3951   12.1189 N.am    1  UNL1       -0.3049
      4 H          63.7239   88.1533   12.0505 H       1  UNL1        0.1494
      5 C          63.4449   86.2146   12.9774 C.3     1  UNL1        0.0715
      6 C          63.1103   84.8274   12.5149 C.3     1  UNL1        0.0184
      7 C          63.7900   85.0339   13.8360 C.3     1  UNL1        0.0017
      8 C          64.1352   83.8534   14.6945 C.3     1  UNL1        0.0006
      9 C          64.4698   85.2405   15.1571 C.3     1  UNL1        0.0017
     10 C          64.1246   86.4211   14.2985 C.3     1  UNL1        0.0184
     11 C          63.7065   83.1799   13.9407 C.3     1  UNL1        0.0102
     12 C          63.1208   82.2597   12.9110 C.3     1  UNL1        0.0687
     13 C          63.8006   82.4663   14.2320 C.3     1  UNL1        0.0086
     14 C          62.7757   83.4403   12.0524 C.3     1  UNL1        0.0102
     15 C          62.7862   80.8726   12.4485 C.2     1  UNL1        0.2184
     16 N          63.0014   80.4876   11.0148 N.am    1  UNL1       -0.3288
     17 O          62.2364   79.8704   13.4197 O.2     1  UNL1       -0.2754
     18 H          63.3622   81.1454   10.3773 H       1  UNL1        0.1449
     19 H          62.7818   79.5772   10.7112 H       1  UNL1        0.1449
     20 C          61.4583   88.6010   10.5059 C.3     1  UNL1        0.1341
     21 C          61.1415   89.4102    9.2833 C.3     1  UNL1        0.0271
     22 C          61.4202   87.9415    9.1593 C.3     1  UNL1        0.0271
     23 N          61.3765   89.6705   11.5545 N.3     1  UNL1       -0.1484
     24 C          60.0386   90.1625   12.0214 C.3     1  UNL1        0.1153
     25 S          62.6328   90.2481   12.1362 S.O2    1  UNL1        0.0637
     26 O          63.0461   90.7210   10.7740 O.2     1  UNL1       -0.1528
     27 O          62.2195   89.7751   13.4984 O.2     1  UNL1       -0.1528
     28 C          67.6577   92.5582   14.4629 C.3     1  UNL1        0.0334
     29 C          66.4014   91.9807   13.8812 C.ar    1  UNL1        0.0057
     30 C          65.6590   90.9056   14.6180 C.ar    1  UNL1       -0.0007
     31 C          64.4028   90.3281   14.0363 C.ar    1  UNL1        0.0197
     32 C          63.8890   90.8256   12.7179 C.ar    1  UNL1        0.1244
     33 C          64.6314   91.9007   11.9810 C.ar    1  UNL1        0.0492
     34 C          65.8877   92.4783   12.5627 C.ar    1  UNL1        0.1375
     35 F          66.6301   93.5534   11.8258 F       1  UNL1       -0.2045
@<TRIPOS>BOND
     1    28    29    1
     2    29    30   ar
     3    30    31   ar
     4    31    32   ar
     5    32    25    1
     6    25    26    2
     7    25    27    2
     8    25    23    1
     9    23    24    1
    10    23    20    1
    11    20     1    1
    12     1     2    2
    13     1     3   am
    14     5     3    1
    15     5     6    1
    16     6     7    1
    17     7     8    1
    18     8     9    1
    19     9    10    1
    20    10    11    1
    21    11    12    1
    22    12    15    1
    23    15    16   am
    24    15    17    2
    25    12    13    1
    26    12    14    1
    27    20    21    1
    28    21    22    1
    29    32    33   ar
    30    33    34   ar
    31    34    35    1
    32    34    29   ar
    33    22    20    1
    34    10     5    1
    35    14     6    1
    36    13     8    1
    37     3     4    1
    38    16    18    1
    39    16    19    1
@<TRIPOS>MOLECULE
*****
 35 39 0 0 0
SMALL
GASTEIGER

@<TRIPOS>ATOM
      1 C          61.8971   88.0462   11.2949 C.2     1  UNL1        0.2368
      2 O          62.9978   87.8319   12.2910 O.2     1  UNL1       -0.2737
      3 N          61.5734   86.9776   10.2933 N.am    1  UNL1       -0.3049
      4 H          60.8509   87.1182    9.6394 H       1  UNL1        0.1494
      5 C          62.3504   85.6946   10.2879 C.3     1  UNL1        0.0715
      6 C          62.4823   84.8923   11.5484 C.3     1  UNL1        0.0184
      7 C          63.1275   84.4115   10.2825 C.3     1  UNL1        0.0017
      8 C          63.9046   83.1285   10.2771 C.3     1  UNL1        0.0006
      9 C          63.7727   83.9307    9.0165 C.3     1  UNL1        0.0017
     10 C          62.9956   85.2138    9.0219 C.3     1  UNL1        0.0184
     11 C          63.6876   82.9927   11.3449 C.3     1  UNL1        0.0102
     12 C          63.3913   82.8070   12.8036 C.3     1  UNL1        0.0687
     13 C          64.0364   82.3263   11.5376 C.3     1  UNL1        0.0086
     14 C          62.6142   84.0900   12.8090 C.3     1  UNL1        0.0102
     15 C          63.5232   82.0047   14.0641 C.2     1  UNL1        0.2184
     16 N          63.0780   80.5726   14.0917 N.am    1  UNL1       -0.3288
     17 O          64.1004   82.6346   15.2971 O.2     1  UNL1       -0.2754
     18 H          62.6992   80.1592   13.2825 H       1  UNL1        0.1449
     19 H          63.1645   80.0461   14.9191 H       1  UNL1        0.1449
     20 C          61.1199   89.3293   11.3002 C.3     1  UNL1        0.1341
     21 C          59.9651   90.2772   11.4337 C.3     1  UNL1        0.0271
     22 C          59.7624   88.8100   11.6710 C.3     1  UNL1        0.0271
     23 N          62.2077   90.2940   10.9314 N.3     1  UNL1       -0.1484
     24 C          62.3450   90.7632    9.5133 C.3     1  UNL1        0.1153
     25 S          63.1581   90.7897   11.9807 S.O2    1  UNL1        0.0637
     26 O          64.0985   91.2556   10.9089 O.2     1  UNL1       -0.1528
     27 O          62.2178   90.3238   13.0525 O.2     1  UNL1       -0.1528
     28 C          66.9598   92.7722   16.1779 C.3     1  UNL1        0.0334
     29 C          66.0093   92.2766   15.1286 C.ar    1  UNL1        0.0057
     30 C          64.9221   91.3112   15.4973 C.ar    1  UNL1       -0.0007
     31 C          63.9717   90.8156   14.4479 C.ar    1  UNL1        0.0197
     32 C          64.1086   91.2853   13.0300 C.ar    1  UNL1        0.1244
     33 C          65.1958   92.2507   12.6613 C.ar    1  UNL1        0.0492
     34 C          66.1462   92.7464   13.7107 C.ar    1  UNL1        0.1375
     35 F          67.2335   93.7117   13.3420 F       1  UNL1       -0.2045
@<TRIPOS>BOND
     1    28    29    1
     2    29    30   ar
     3    30    31   ar
     4    31    32   ar
     5    32    25    1
     6    25    26    2
     7    25    27    2
     8    25    23    1
     9    23    24    1
    10    23    20    1
    11    20     1    1
    12     1     2    2
    13     1     3   am
    14     5     3    1
    15     5     6    1
    16     6     7    1
    17     7     8    1
    18     8     9    1
    19     9    10    1
    20    10    11    1
    21    11    12    1
    22    12    15    1
    23    15    16   am
    24    15    17    2
    25    12    13    1
    26    12    14    1
    27    20    21    1
    28    21    22    1
    29    32    33   ar
    30    33    34   ar
    31    34    35    1
    32    34    29   ar
    33    22    20    1
    34    10     5    1
    35    14     6    1
    36    13     8    1
    37     3     4    1
    38    16    18    1
    39    16    19    1
@<TRIPOS>MOLECULE
*****
 35 39 0 0 0
SMALL
GASTEIGER

@<TRIPOS>ATOM
      1 C          61.7881   89.5213   10.8381 C.2     1  UNL1        0.2368
      2 O          62.7969   89.1449    9.7938 O.2     1  UNL1       -0.2737
      3 N          62.1193   90.5709   11.8572 N.am    1  UNL1       -0.3049
      4 H          61.4572   90.8179   12.5426 H       1  UNL1        0.1494
      5 C          63.4594   91.2443   11.8320 C.3     1  UNL1        0.0715
      6 C          64.2541   91.3809   13.0969 C.3     1  UNL1        0.0184
      7 C          64.7996   91.9176   11.8068 C.3     1  UNL1        0.0017
      8 C          66.1397   92.5910   11.7816 C.3     1  UNL1        0.0006
      9 C          65.3452   92.4543   10.5167 C.3     1  UNL1        0.0017
     10 C          64.0050   91.7809   10.5419 C.3     1  UNL1        0.0184
     11 C          66.2449   92.4219   12.8615 C.3     1  UNL1        0.0102
     12 C          66.3887   92.1909   14.3366 C.3     1  UNL1        0.0687
     13 C          66.9343   92.7276   13.0465 C.3     1  UNL1        0.0086
     14 C          65.0486   91.5176   14.3618 C.3     1  UNL1        0.0102
     15 C          67.1833   92.3276   15.6015 C.2     1  UNL1        0.2184
     16 N          66.5785   93.0000   16.7982 N.am    1  UNL1       -0.3288
     17 O          68.5827   91.7919   15.6697 O.2     1  UNL1       -0.2754
     18 H          65.6600   93.3516   16.7535 H       1  UNL1        0.1449
     19 H          67.1001   93.0897   17.6284 H       1  UNL1        0.1449
     20 C          60.4479   88.8479   10.8634 C.3     1  UNL1        0.1341
     21 C          59.0112   88.5799   11.2011 C.3     1  UNL1        0.0271
     22 C          59.7045   89.7814   11.7721 C.3     1  UNL1        0.0271
     23 N          60.7260   87.6806    9.9633 N.3     1  UNL1       -0.1484
     24 C          60.2213   87.6856    8.5508 C.3     1  UNL1        0.1153
     25 S          61.5088   86.5082   10.4759 S.O2    1  UNL1        0.0637
     26 O          61.0050   86.7781   11.8628 O.2     1  UNL1       -0.1528
     27 O          62.0126   86.2383    9.0890 O.2     1  UNL1       -0.1528
     28 C          64.6401   81.8187   12.5262 C.3     1  UNL1        0.0334
     29 C          63.8573   82.9911   12.0136 C.ar    1  UNL1        0.0057
     30 C          63.0488   83.8256   12.9623 C.ar    1  UNL1       -0.0007
     31 C          62.2660   84.9979   12.4497 C.ar    1  UNL1        0.0197
     32 C          62.2917   85.3358   10.9885 C.ar    1  UNL1        0.1244
     33 C          63.1001   84.5013   10.0398 C.ar    1  UNL1        0.0492
     34 C          63.8830   83.3289   10.5524 C.ar    1  UNL1        0.1375
     35 F          64.6914   82.4944    9.6037 F       1  UNL1       -0.2045
@<TRIPOS>BOND
     1    28    29    1
     2    29    30   ar
     3    30    31   ar
     4    31    32   ar
     5    32    25    1
     6    25    26    2
     7    25    27    2
     8    25    23    1
     9    23    24    1
    10    23    20    1
    11    20     1    1
    12     1     2    2
    13     1     3   am
    14     5     3    1
    15     5     6    1
    16     6     7    1
    17     7     8    1
    18     8     9    1
    19     9    10    1
    20    10    11    1
    21    11    12    1
    22    12    15    1
    23    15    16   am
    24    15    17    2
    25    12    13    1
    26    12    14    1
    27    20    21    1
    28    21    22    1
    29    32    33   ar
    30    33    34   ar
    31    34    35    1
    32    34    29   ar
    33    22    20    1
    34    10     5    1
    35    14     6    1
    36    13     8    1
    37     3     4    1
    38    16    18    1
    39    16    19    1
@<TRIPOS>MOLECULE
*****
 35 39 0 0 0
SMALL
GASTEIGER

@<TRIPOS>ATOM
      1 C          63.5770   87.3353   15.3530 C.2     1  UNL1        0.2368
      2 O          63.4988   88.4000   16.4066 O.2     1  UNL1       -0.2737
      3 N          63.8906   87.7062   13.9338 N.am    1  UNL1       -0.3049
      4 H          63.9419   87.0074   13.2422 H       1  UNL1        0.1494
      5 C          64.1260   89.1417   13.5682 C.3     1  UNL1        0.0715
      6 C          65.2924   89.8828   14.1519 C.3     1  UNL1        0.0184
      7 C          64.3615   90.5774   13.2027 C.3     1  UNL1        0.0017
      8 C          64.5970   92.0130   12.8371 C.3     1  UNL1        0.0006
      9 C          63.4306   91.2720   12.2535 C.3     1  UNL1        0.0017
     10 C          63.1951   89.8364   12.6190 C.3     1  UNL1        0.0184
     11 C          65.4833   92.0325   13.4850 C.3     1  UNL1        0.0102
     12 C          66.6942   92.0592   14.3700 C.3     1  UNL1        0.0687
     13 C          65.7633   92.7539   13.4208 C.3     1  UNL1        0.0086
     14 C          66.4587   90.6237   14.7355 C.3     1  UNL1        0.0102
     15 C          67.8605   92.8003   14.9536 C.2     1  UNL1        0.2184
     16 N          69.2474   92.5332   14.4486 N.am    1  UNL1       -0.3288
     17 O          67.6399   93.8083   16.0422 O.2     1  UNL1       -0.2754
     18 H          69.3922   91.8716   13.7341 H       1  UNL1        0.1449
     19 H          70.0129   93.0195   14.8316 H       1  UNL1        0.1449
     20 C          63.3415   85.8997   15.7185 C.3     1  UNL1        0.1341
     21 C          62.7253   84.6907   16.3577 C.3     1  UNL1        0.0271
     22 C          62.1631   86.0538   16.6336 C.3     1  UNL1        0.0271
     23 N          64.4383   85.2471   14.9302 N.3     1  UNL1       -0.1484
     24 C          65.8607   85.6835   15.1206 C.3     1  UNL1        0.1153
     25 S          64.1125   84.1580   13.9515 S.O2    1  UNL1        0.0637
     26 O          63.3580   85.1421   13.1075 O.2     1  UNL1       -0.1528
     27 O          64.8670   83.1739   14.7955 O.2     1  UNL1       -0.1528
     28 C          62.8096   79.8017   10.0368 C.3     1  UNL1        0.0334
     29 C          63.1353   80.8908   11.0155 C.ar    1  UNL1        0.0057
     30 C          63.7683   82.1639   10.5375 C.ar    1  UNL1       -0.0007
     31 C          64.0940   83.2529   11.5163 C.ar    1  UNL1        0.0197
     32 C          63.7868   83.0689   12.9728 C.ar    1  UNL1        0.1244
     33 C          63.1538   81.7958   13.4508 C.ar    1  UNL1        0.0492
     34 C          62.8280   80.7067   12.4721 C.ar    1  UNL1        0.1375
     35 F          62.1950   79.4335   12.9500 F       1  UNL1       -0.2045
@<TRIPOS>BOND
     1    28    29    1
     2    29    30   ar
     3    30    31   ar
     4    31    32   ar
     5    32    25    1
     6    25    26    2
     7    25    27    2
     8    25    23    1
     9    23    24    1
    10    23    20    1
    11    20     1    1
    12     1     2    2
    13     1     3   am
    14     5     3    1
    15     5     6    1
    16     6     7    1
    17     7     8    1
    18     8     9    1
    19     9    10    1
    20    10    11    1
    21    11    12    1
    22    12    15    1
    23    15    16   am
    24    15    17    2
    25    12    13    1
    26    12    14    1
    27    20    21    1
    28    21    22    1
    29    32    33   ar
    30    33    34   ar
    31    34    35    1
    32    34    29   ar
    33    22    20    1
    34    10     5    1
    35    14     6    1
    36    13     8    1
    37     3     4    1
    38    16    18    1
    39    16    19    1
@<TRIPOS>MOLECULE
*****
 35 39 0 0 0
SMALL
GASTEIGER

@<TRIPOS>ATOM
      1 C          63.4074   87.9705   15.1883 C.2     1  UNL1        0.2368
      2 O          63.0607   89.3289   15.7218 O.2     1  UNL1       -0.2737
      3 N          63.6952   87.7896   13.7273 N.am    1  UNL1       -0.3049
      4 H          63.9228   86.8980   13.3772 H       1  UNL1        0.1494
      5 C          63.6363   88.9669   12.7999 C.3     1  UNL1        0.0715
      6 C          64.5107   90.1605   13.0465 C.3     1  UNL1        0.0184
      7 C          63.5774   90.1444   11.8723 C.3     1  UNL1        0.0017
      8 C          63.5184   91.3218   10.9449 C.3     1  UNL1        0.0006
      9 C          62.6440   90.1283   10.6982 C.3     1  UNL1        0.0017
     10 C          62.7029   88.9508   11.6257 C.3     1  UNL1        0.0184
     11 C          64.2825   91.8330   11.5454 C.3     1  UNL1        0.0102
     12 C          65.3262   92.5314   12.3657 C.3     1  UNL1        0.0687
     13 C          64.3928   92.5153   11.1915 C.3     1  UNL1        0.0086
     14 C          65.3851   91.3541   13.2931 C.3     1  UNL1        0.0102
     15 C          66.2006   93.7250   12.6123 C.2     1  UNL1        0.2184
     16 N          66.9587   94.3468   11.4771 N.am    1  UNL1       -0.3288
     17 O          66.3169   94.2968   13.9942 O.2     1  UNL1       -0.2754
     18 H          66.8824   93.9715   10.5702 H       1  UNL1        0.1449
     19 H          67.5326   95.1302   11.6390 H       1  UNL1        0.1449
     20 C          63.4664   86.7931   16.1158 C.3     1  UNL1        0.1341
     21 C          63.1939   85.9205   17.3051 C.3     1  UNL1        0.0271
     22 C          62.5324   87.2620   17.1917 C.3     1  UNL1        0.0271
     23 N          64.4209   85.9153   15.3619 N.3     1  UNL1       -0.1484
     24 C          65.8415   86.3521   15.1595 C.3     1  UNL1        0.1153
     25 S          63.9547   84.6006   14.8103 S.O2    1  UNL1        0.0637
     26 O          65.1602   83.9272   15.3965 O.2     1  UNL1       -0.1528
     27 O          62.7493   85.2739   14.2241 O.2     1  UNL1       -0.1528
     28 C          62.0901   79.3418   12.6039 C.3     1  UNL1        0.0334
     29 C          62.5563   80.6565   13.1555 C.ar    1  UNL1        0.0057
     30 C          63.8762   81.2246   12.7255 C.ar    1  UNL1       -0.0007
     31 C          64.3423   82.5392   13.2771 C.ar    1  UNL1        0.0197
     32 C          63.4886   83.2858   14.2587 C.ar    1  UNL1        0.1244
     33 C          62.1686   82.7178   14.6887 C.ar    1  UNL1        0.0492
     34 C          61.7024   81.4031   14.1371 C.ar    1  UNL1        0.1375
     35 F          60.3824   80.8350   14.5671 F       1  UNL1       -0.2045
@<TRIPOS>BOND
     1    28    29    1
     2    29    30   ar
     3    30    31   ar
     4    31    32   ar
     5    32    25    1
     6    25    26    2
     7    25    27    2
     8    25    23    1
     9    23    24    1
    10    23    20    1
    11    20     1    1
    12     1     2    2
    13     1     3   am
    14     5     3    1
    15     5     6    1
    16     6     7    1
    17     7     8    1
    18     8     9    1
    19     9    10    1
    20    10    11    1
    21    11    12    1
    22    12    15    1
    23    15    16   am
    24    15    17    2
    25    12    13    1
    26    12    14    1
    27    20    21    1
    28    21    22    1
    29    32    33   ar
    30    33    34   ar
    31    34    35    1
    32    34    29   ar
    33    22    20    1
    34    10     5    1
    35    14     6    1
    36    13     8    1
    37     3     4    1
    38    16    18    1
    39    16    19    1
@<TRIPOS>MOLECULE
*****
 35 39 0 0 0
SMALL
GASTEIGER

@<TRIPOS>ATOM
      1 C          63.8200   86.8192   13.9920 C.2     1  UNL1        0.2368
      2 O          63.7568   88.1906   14.5962 O.2     1  UNL1       -0.2737
      3 N          63.2945   86.5850   12.6067 N.am    1  UNL1       -0.3049
      4 H          63.3361   85.6849   12.2101 H       1  UNL1        0.1494
      5 C          62.7058   87.7223   11.8257 C.3     1  UNL1        0.0715
      6 C          61.7219   87.4477   10.7272 C.3     1  UNL1        0.0184
      7 C          62.1170   88.8595   11.0446 C.3     1  UNL1        0.0017
      8 C          61.5283   89.9967   10.2635 C.3     1  UNL1        0.0006
      9 C          62.5121   90.2713   11.3620 C.3     1  UNL1        0.0017
     10 C          63.1009   89.1340   12.1431 C.3     1  UNL1        0.0184
     11 C          60.9455   89.2840    9.6651 C.3     1  UNL1        0.0102
     12 C          60.1493   88.3104    8.8477 C.3     1  UNL1        0.0687
     13 C          60.5444   89.7222    9.1651 C.3     1  UNL1        0.0086
     14 C          60.7380   87.1732    9.6287 C.3     1  UNL1        0.0102
     15 C          59.1654   88.0359    7.7492 C.2     1  UNL1        0.2184
     16 N          58.9867   89.0268    6.6375 N.am    1  UNL1       -0.3288
     17 O          58.3603   86.7703    7.7625 O.2     1  UNL1       -0.2754
     18 H          59.5151   89.8575    6.6287 H       1  UNL1        0.1449
     19 H          58.3409   88.8467    5.9165 H       1  UNL1        0.1449
     20 C          64.4088   85.6819   14.7730 C.3     1  UNL1        0.1341
     21 C          65.4034   84.8710   15.5496 C.3     1  UNL1        0.0271
     22 C          65.7821   86.2269   15.0316 C.3     1  UNL1        0.0271
     23 N          63.2399   84.7420   14.7856 N.3     1  UNL1       -0.1484
     24 C          62.1463   84.9185   15.7969 C.3     1  UNL1        0.1153
     25 S          63.1645   83.6255   13.7866 S.O2    1  UNL1        0.0637
     26 O          61.8981   83.1387   14.4263 O.2     1  UNL1       -0.1528
     27 O          64.4310   84.1123   13.1470 O.2     1  UNL1       -0.1528
     28 C          62.8632   79.1595    9.7911 C.3     1  UNL1        0.0334
     29 C          62.9385   80.2761   10.7900 C.ar    1  UNL1        0.0057
     30 C          63.3356   81.6531   10.3471 C.ar    1  UNL1       -0.0007
     31 C          63.4109   82.7695   11.3460 C.ar    1  UNL1        0.0197
     32 C          63.0892   82.5090   12.7877 C.ar    1  UNL1        0.1244
     33 C          62.6922   81.1319   13.2306 C.ar    1  UNL1        0.0492
     34 C          62.6168   80.0154   12.2317 C.ar    1  UNL1        0.1375
     35 F          62.2198   78.6384   12.6746 F       1  UNL1       -0.2045
@<TRIPOS>BOND
     1    28    29    1
     2    29    30   ar
     3    30    31   ar
     4    31    32   ar
     5    32    25    1
     6    25    26    2
     7    25    27    2
     8    25    23    1
     9    23    24    1
    10    23    20    1
    11    20     1    1
    12     1     2    2
    13     1     3   am
    14     5     3    1
    15     5     6    1
    16     6     7    1
    17     7     8    1
    18     8     9    1
    19     9    10    1
    20    10    11    1
    21    11    12    1
    22    12    15    1
    23    15    16   am
    24    15    17    2
    25    12    13    1
    26    12    14    1
    27    20    21    1
    28    21    22    1
    29    32    33   ar
    30    33    34   ar
    31    34    35    1
    32    34    29   ar
    33    22    20    1
    34    10     5    1
    35    14     6    1
    36    13     8    1
    37     3     4    1
    38    16    18    1
    39    16    19    1
