@<TRIPOS>MOLECULE
*****
 47 54 0 0 0
SMALL
GASTEIGER

@<TRIPOS>ATOM
      1 C          61.8917   87.4300    9.4287 C.3     1  UNL1        0.2253
      2 O          62.2131   86.2971   10.3578 O.3     1  UNL1       -0.2976
      3 C          62.7277   86.8811   11.6400 C.3     1  UNL1        0.2754
      4 O          62.6744   85.3821   11.6304 O.3     1  UNL1       -0.3478
      5 C          63.1989   86.2457   12.9145 C.3     1  UNL1        0.1465
      6 C          63.3150   84.8112   13.3378 C.3     1  UNL1        0.0285
      7 C          63.8545   84.7831   14.7371 C.3     1  UNL1        0.0234
      8 C          64.0719   86.2000   15.1787 C.3     1  UNL1        0.0937
      9 N          63.6668   87.1039   14.0523 N.am    1  UNL1       -0.2734
     10 C          63.6634   88.5977   13.9156 C.2     1  UNL1        0.2444
     11 O          64.1312   89.4560   15.0533 O.2     1  UNL1       -0.2731
     12 C          63.1921   89.2331   12.6411 C.3     1  UNL1        0.1604
     13 N          62.7243   88.3748   11.5033 N.am    1  UNL1       -0.2268
     14 C          62.2076   88.7140   10.1366 C.2     1  UNL1        0.2719
     15 O          61.9174   89.9126    9.2827 O.2     1  UNL1       -0.2704
     16 H          62.9919   85.0418   12.4815 H       1  UNL1        0.2145
     17 N          61.4865   88.3339    8.3023 N.am    1  UNL1       -0.2790
     18 C          60.0339   88.6004    8.0399 C.2     1  UNL1        0.2252
     19 O          59.2660   88.2395    8.5385 O.2     1  UNL1       -0.2750
     20 H          62.1740   88.7522    7.7351 H       1  UNL1        0.1519
     21 C          59.6287   89.5043    6.9135 C.3     1  UNL1        0.0928
     22 C          60.6629   90.0230    5.9590 C.3     1  UNL1        0.0159
     23 C          60.2578   90.9269    4.8325 C.3     1  UNL1        0.0344
     24 C          61.2921   91.4456    3.8779 C.2     1  UNL1       -0.0342
     25 C          62.7316   91.0603    4.0498 C.2     1  UNL1       -0.0078
     26 C          63.7658   91.5790    3.0952 C.2     1  UNL1        0.0006
     27 C          63.3606   92.4829    1.9688 C.2     1  UNL1        0.0153
     28 C          61.9212   92.8681    1.7970 C.2     1  UNL1        0.0662
     29 N          61.0945   93.7040    0.8653 N.2     1  UNL1       -0.2482
     30 C          59.6663   93.6270    1.3172 C.2     1  UNL1        0.0907
     31 C          59.4474   92.7347    2.5797 C.2     1  UNL1       -0.0148
     32 C          60.8869   92.3495    2.7515 C.3     1  UNL1        0.0783
     33 C          58.4132   92.2160    3.5343 C.3     1  UNL1        0.0405
     34 C          58.8183   91.3121    4.6607 C.3     1  UNL1        0.0653
     35 N          57.7840   90.7935    5.6153 N.3     1  UNL1       -0.2717
     36 C          56.3446   91.1787    5.4435 C.3     1  UNL1        0.0896
     37 C          58.1892   89.8896    6.7417 C.3     1  UNL1        0.0812
     38 C          60.5755   86.0675    8.2426 C.3     1  UNL1        0.0047
     39 C          61.4911   86.3349    8.4852 C.3     1  UNL1        0.0516
     40 C          62.5425   85.5144    7.7986 C.3     1  UNL1        0.0047
     41 C          63.1887   90.7268   12.5044 C.3     1  UNL1        0.0557
     42 C          64.4532   91.4502   12.1465 C.ar    1  UNL1       -0.0200
     43 C          65.5188   91.6550   13.1821 C.ar    1  UNL1       -0.0042
     44 C          66.7833   92.3783   12.8243 C.ar    1  UNL1       -0.0003
     45 C          66.9820   92.8969   11.4309 C.ar    1  UNL1       -0.0000
     46 C          65.9164   92.6921   10.3953 C.ar    1  UNL1       -0.0003
     47 C          64.6519   91.9688   10.7531 C.ar    1  UNL1       -0.0042
@<TRIPOS>BOND
     1    38    39    1
     2    39    40    1
     3    39     1    1
     4     1    17    1
     5    17    18   am
     6    18    19    2
     7    21    18    1
     8    21    22    1
     9    23    22    1
    10    23    24    1
    11    24    25    2
    12    25    26    1
    13    26    27    2
    14    27    28    1
    15    28    29    2
    16    29    30    1
    17    30    31    2
    18    31    32    1
    19    31    33    1
    20    34    33    1
    21    34    35    1
    22    35    36    1
    23    35    37    1
    24     1     2    1
    25     2     3    1
    26     3     4    1
    27     3     5    1
    28     5     6    1
    29     6     7    1
    30     7     8    1
    31     8     9    1
    32     9    10   am
    33    10    11    2
    34    10    12    1
    35    12    41    1
    36    41    42    1
    37    42    43   ar
    38    43    44   ar
    39    44    45   ar
    40    45    46   ar
    41    46    47   ar
    42    12    13    1
    43    13    14   am
    44    14    15    2
    45    14     1    1
    46    37    21    1
    47    13     3    1
    48    34    23    1
    49     9     5    1
    50    47    42   ar
    51    32    24    1
    52    32    28    1
    53    17    20    1
    54     4    16    1
