@<TRIPOS>MOLECULE
*****
 40 44 0 0 0
SMALL
GASTEIGER

@<TRIPOS>ATOM
      1 C          61.9508   88.4113   10.1852 C.3     1  UNL1        0.0312
      2 C          62.5301   87.5047   11.2304 C.2     1  UNL1        0.0136
      3 C          62.4560   86.0166   11.0571 C.2     1  UNL1        0.0107
      4 C          63.0352   85.1100   12.1023 C.2     1  UNL1        0.0510
      5 C          63.6885   85.6915   13.3210 C.2     1  UNL1        0.0613
      6 C          63.7625   87.1796   13.4943 C.2     1  UNL1        0.2246
      7 N          64.3409   88.0358   14.5817 N.2     1  UNL1       -0.0378
      8 C          64.1191   89.4716   14.2085 C.2     1  UNL1        0.3605
      9 N          63.4037   89.5027   12.8904 N.2     1  UNL1       -0.0547
     10 C          63.1833   88.0862   12.4491 C.3     1  UNL1        0.2976
     11 C          64.5390   90.6665   15.0121 C.3     1  UNL1        0.2246
     12 C          65.6192   91.5727   14.5003 C.2     1  UNL1        0.0436
     13 C          66.0390   92.7676   15.3041 C.2     1  UNL1        0.0288
     14 C          65.3787   93.0563   16.6196 C.2     1  UNL1        0.0896
     15 N          64.2986   92.1501   17.1315 N.am    1  UNL1       -0.1770
     16 C          63.8787   90.9552   16.3277 C.2     1  UNL1        0.2627
     17 O          62.7985   90.0490   16.8395 O.2     1  UNL1       -0.2719
     18 N          66.2795   91.2841   13.1848 N.pl3   1  UNL1       -0.3329
     19 H          66.9074   90.5301   13.1042 H       1  UNL1        0.1466
     20 C          65.9831   92.1441   11.9921 C.3     1  UNL1        0.1211
     21 C          67.1078   92.6924   11.1648 C.3     1  UNL1        0.1522
     22 O          68.4708   92.0715   11.2465 O.3     1  UNL1       -0.3783
     23 H          68.4527   91.3332   11.8753 H       1  UNL1        0.2109
     24 C          66.8694   93.8615   10.2558 C.ar    1  UNL1        0.0067
     25 C          67.7974   94.1189    9.1058 C.ar    1  UNL1       -0.0018
     26 C          67.5590   95.2880    8.1968 C.ar    1  UNL1        0.0006
     27 C          66.3926   96.1998    8.4377 C.ar    1  UNL1        0.0114
     28 C          65.4646   95.9424    9.5877 C.ar    1  UNL1        0.0574
     29 CL         64.2982   96.8542    9.8287 Cl      1  UNL1       -0.0823
     30 C          65.7030   94.7733   10.4967 C.ar    1  UNL1        0.0095
     31 N          62.9612   83.6218   11.9289 N.pl3   1  UNL1       -0.3046
     32 C          63.4094   82.9934   10.6427 C.3     1  UNL1        0.1081
     33 C          63.3353   81.5053   10.4693 C.3     1  UNL1        0.0938
     34 N          62.8132   80.6457   11.5821 N.3     1  UNL1       -0.2688
     35 C          62.3650   81.2741   12.8682 C.3     1  UNL1        0.0938
     36 C          62.4390   82.7622   13.0416 C.3     1  UNL1        0.1081
     37 C          62.7391   79.1576   11.4087 C.3     1  UNL1        0.0885
     38 C          62.7387   78.5619   10.0320 C.3     1  UNL1        0.1227
     39 C          63.7478   77.5134    9.6682 C.1     1  UNL1        0.0746
     40 N          64.7569   76.4650    9.3042 N.1     1  UNL1       -0.1958
@<TRIPOS>BOND
     1     1     2    1
     2     2     3    2
     3     3     4    1
     4     4    31    1
     5    31    32    1
     6    32    33    1
     7    33    34    1
     8    34    37    1
     9    37    38    1
    10    38    39    1
    11    39    40    3
    12    34    35    1
    13    35    36    1
    14     4     5    2
    15     5     6    1
    16     6     7    2
    17     7     8    1
    18     8    11    1
    19    11    12    1
    20    12    18    1
    21    18    20    1
    22    20    21    1
    23    21    22    1
    24    21    24    1
    25    24    25   ar
    26    25    26   ar
    27    26    27   ar
    28    27    28   ar
    29    28    29    1
    30    28    30   ar
    31    12    13    2
    32    13    14    1
    33    14    15    2
    34    15    16    1
    35    16    17    2
    36     8     9    2
    37     9    10    1
    38    10     2    1
    39    36    31    1
    40    10     6    1
    41    16    11    1
    42    30    24   ar
    43    18    19    1
    44    22    23    1
@<TRIPOS>MOLECULE
*****
 40 44 0 0 0
SMALL
GASTEIGER

@<TRIPOS>ATOM
      1 C          59.4402   88.9655   12.2482 C.3     1  UNL1        0.0312
      2 C          60.0030   88.5802   10.9122 C.2     1  UNL1        0.0136
      3 C          59.6338   89.3649    9.6883 C.2     1  UNL1        0.0107
      4 C          60.1965   88.9797    8.3524 C.2     1  UNL1        0.0510
      5 C          61.1285   87.8097    8.2402 C.2     1  UNL1        0.0613
      6 C          61.4977   87.0250    9.4641 C.2     1  UNL1        0.2246
      7 N          62.3861   85.8326    9.6617 N.2     1  UNL1       -0.0378
      8 C          62.3724   85.4809   11.1198 C.2     1  UNL1        0.3605
      9 N          61.4755   86.4559   11.8234 N.2     1  UNL1       -0.0547
     10 C          60.9349   87.4102   10.8001 C.3     1  UNL1        0.2976
     11 C          63.1236   84.3524   11.7617 C.3     1  UNL1        0.2246
     12 C          63.5420   84.4514   13.1988 C.2     1  UNL1        0.0436
     13 C          64.2932   83.3227   13.8406 C.2     1  UNL1        0.0288
     14 C          64.6261   82.0952   13.0454 C.2     1  UNL1        0.0896
     15 N          64.2077   81.9962   11.6084 N.am    1  UNL1       -0.1770
     16 C          63.4565   83.1248   10.9665 C.2     1  UNL1        0.2627
     17 O          63.0381   83.0258    9.5295 O.2     1  UNL1       -0.2719
     18 N          63.2091   85.6789   13.9940 N.pl3   1  UNL1       -0.3329
     19 H          62.2798   85.8491   14.2708 H       1  UNL1        0.1466
     20 C          64.2922   86.6470   14.3676 C.3     1  UNL1        0.1211
     21 C          63.9352   87.9964   14.9168 C.3     1  UNL1        0.1522
     22 O          63.3846   88.1187   16.3067 O.3     1  UNL1       -0.3783
     23 H          63.3234   87.2382   16.7089 H       1  UNL1        0.2109
     24 C          64.1287   89.2235   14.0761 C.ar    1  UNL1        0.0067
     25 C          65.0598   90.3069   14.5335 C.ar    1  UNL1       -0.0018
     26 C          65.2534   91.5340   13.6928 C.ar    1  UNL1        0.0006
     27 C          64.5158   91.6777   12.3946 C.ar    1  UNL1        0.0114
     28 C          63.5847   90.5943   11.9372 C.ar    1  UNL1        0.0574
     29 CL         62.8471   90.7380   10.6390 Cl      1  UNL1       -0.0823
     30 C          63.3911   89.3672   12.7779 C.ar    1  UNL1        0.0095
     31 N          59.8273   89.7645    7.1285 N.pl3   1  UNL1       -0.3046
     32 C          58.3845   89.9423    6.7585 C.3     1  UNL1        0.1081
     33 C          58.0153   90.7270    5.5347 C.3     1  UNL1        0.0938
     34 N          59.0888   91.3339    4.6807 N.3     1  UNL1       -0.2688
     35 C          60.5316   91.1561    5.0507 C.3     1  UNL1        0.0938
     36 C          60.9008   90.3714    6.2746 C.3     1  UNL1        0.1081
     37 C          58.7197   92.1186    3.4569 C.3     1  UNL1        0.0885
     38 C          59.7879   92.7923    2.6474 C.3     1  UNL1        0.1227
     39 C          59.5126   93.1945    1.2288 C.1     1  UNL1        0.0746
     40 N          59.2372   93.5967   -0.1897 N.1     1  UNL1       -0.1958
@<TRIPOS>BOND
     1     1     2    1
     2     2     3    2
     3     3     4    1
     4     4    31    1
     5    31    32    1
     6    32    33    1
     7    33    34    1
     8    34    37    1
     9    37    38    1
    10    38    39    1
    11    39    40    3
    12    34    35    1
    13    35    36    1
    14     4     5    2
    15     5     6    1
    16     6     7    2
    17     7     8    1
    18     8    11    1
    19    11    12    1
    20    12    18    1
    21    18    20    1
    22    20    21    1
    23    21    22    1
    24    21    24    1
    25    24    25   ar
    26    25    26   ar
    27    26    27   ar
    28    27    28   ar
    29    28    29    1
    30    28    30   ar
    31    12    13    2
    32    13    14    1
    33    14    15    2
    34    15    16    1
    35    16    17    2
    36     8     9    2
    37     9    10    1
    38    10     2    1
    39    36    31    1
    40    10     6    1
    41    16    11    1
    42    30    24   ar
    43    18    19    1
    44    22    23    1
@<TRIPOS>MOLECULE
*****
 40 44 0 0 0
SMALL
GASTEIGER

@<TRIPOS>ATOM
      1 C          61.8461   88.6596   10.4900 C.3     1  UNL1        0.0312
      2 C          62.5142   87.8900   11.5906 C.2     1  UNL1        0.0136
      3 C          62.3149   86.4071   11.6968 C.2     1  UNL1        0.0107
      4 C          62.9829   85.6375   12.7974 C.2     1  UNL1        0.0510
      5 C          63.8503   86.3507   13.7919 C.2     1  UNL1        0.0613
      6 C          64.0496   87.8336   13.6857 C.2     1  UNL1        0.2246
      7 N          64.8417   88.8016   14.5136 N.2     1  UNL1       -0.0378
      8 C          64.6632   90.1695   13.9246 C.2     1  UNL1        0.3605
      9 N          63.7608   90.0469   12.7327 N.2     1  UNL1       -0.0547
     10 C          63.3815   88.6032   12.5851 C.3     1  UNL1        0.2976
     11 C          65.2791   91.4375   14.4375 C.3     1  UNL1        0.2246
     12 C          66.1532   92.2630   13.5406 C.2     1  UNL1        0.0436
     13 C          66.7690   93.5310   14.0535 C.2     1  UNL1        0.0288
     14 C          66.5107   93.9735   15.4633 C.2     1  UNL1        0.0896
     15 N          65.6365   93.1480   16.3602 N.am    1  UNL1       -0.1770
     16 C          65.0207   91.8800   15.8472 C.2     1  UNL1        0.2627
     17 O          64.1466   91.0546   16.7441 O.2     1  UNL1       -0.2719
     18 N          66.4116   91.8206   12.1308 N.pl3   1  UNL1       -0.3329
     19 H          65.7322   91.2979   11.6466 H       1  UNL1        0.1466
     20 C          67.7050   92.1745   11.4587 C.3     1  UNL1        0.1211
     21 C          67.6946   92.8198   10.1047 C.3     1  UNL1        0.1522
     22 O          68.3220   92.1201    8.9356 O.3     1  UNL1       -0.3783
     23 H          68.6854   91.2687    9.2253 H       1  UNL1        0.2109
     24 C          67.0569   94.1648    9.9198 C.ar    1  UNL1        0.0067
     25 C          66.3776   94.8380   11.0754 C.ar    1  UNL1       -0.0018
     26 C          65.7399   96.1830   10.8905 C.ar    1  UNL1        0.0006
     27 C          65.7813   96.8549    9.5500 C.ar    1  UNL1        0.0114
     28 C          66.4606   96.1816    8.3944 C.ar    1  UNL1        0.0574
     29 CL         66.5020   96.8535    7.0539 Cl      1  UNL1       -0.0823
     30 C          67.0983   94.8366    8.5793 C.ar    1  UNL1        0.0095
     31 N          62.7836   84.1545   12.9035 N.pl3   1  UNL1       -0.3046
     32 C          62.5989   83.5170   14.2487 C.3     1  UNL1        0.1081
     33 C          62.3996   82.0341   14.3549 C.3     1  UNL1        0.0938
     34 N          62.3849   81.1887   13.1159 N.3     1  UNL1       -0.2688
     35 C          62.5696   81.8262   11.7707 C.3     1  UNL1        0.0938
     36 C          62.7689   83.3091   11.6645 C.3     1  UNL1        0.1081
     37 C          62.1856   79.7058   13.2220 C.3     1  UNL1        0.0885
     38 C          61.1149   79.1551   14.1166 C.3     1  UNL1        0.1227
     39 C          59.7839   79.8413   14.2037 C.1     1  UNL1        0.0746
     40 N          58.4529   80.5274   14.2908 N.1     1  UNL1       -0.1958
@<TRIPOS>BOND
     1     1     2    1
     2     2     3    2
     3     3     4    1
     4     4    31    1
     5    31    32    1
     6    32    33    1
     7    33    34    1
     8    34    37    1
     9    37    38    1
    10    38    39    1
    11    39    40    3
    12    34    35    1
    13    35    36    1
    14     4     5    2
    15     5     6    1
    16     6     7    2
    17     7     8    1
    18     8    11    1
    19    11    12    1
    20    12    18    1
    21    18    20    1
    22    20    21    1
    23    21    22    1
    24    21    24    1
    25    24    25   ar
    26    25    26   ar
    27    26    27   ar
    28    27    28   ar
    29    28    29    1
    30    28    30   ar
    31    12    13    2
    32    13    14    1
    33    14    15    2
    34    15    16    1
    35    16    17    2
    36     8     9    2
    37     9    10    1
    38    10     2    1
    39    36    31    1
    40    10     6    1
    41    16    11    1
    42    30    24   ar
    43    18    19    1
    44    22    23    1
@<TRIPOS>MOLECULE
*****
 40 44 0 0 0
SMALL
GASTEIGER

@<TRIPOS>ATOM
      1 C          56.2477   91.2139    5.1516 C.3     1  UNL1        0.0312
      2 C          57.7102   91.3698    4.8569 C.2     1  UNL1        0.0136
      3 C          58.1580   92.2480    3.7263 C.2     1  UNL1        0.0107
      4 C          59.6204   92.4040    3.4316 C.2     1  UNL1        0.0510
      5 C          60.6352   91.6817    4.2674 C.2     1  UNL1        0.0613
      6 C          60.1874   90.8035    5.3980 C.2     1  UNL1        0.2246
      7 N          60.9507   89.9730    6.3867 N.2     1  UNL1       -0.0378
      8 C          59.9600   89.3037    7.2925 C.2     1  UNL1        0.3605
      9 N          58.5844   89.7206    6.8636 N.2     1  UNL1       -0.0547
     10 C          58.7249   90.6476    5.6928 C.3     1  UNL1        0.2976
     11 C          60.2873   88.3796    8.4279 C.3     1  UNL1        0.2246
     12 C          60.9095   88.9217    9.6805 C.2     1  UNL1        0.0436
     13 C          61.2368   87.9975   10.8158 C.2     1  UNL1        0.0288
     14 C          60.9420   86.5315   10.6986 C.2     1  UNL1        0.0896
     15 N          60.3198   85.9895    9.4459 N.am    1  UNL1       -0.1770
     16 C          59.9924   86.9136    8.3106 C.2     1  UNL1        0.2627
     17 O          59.3702   86.3716    7.0580 O.2     1  UNL1       -0.2719
     18 N          61.2044   90.3877    9.7978 N.pl3   1  UNL1       -0.3329
     19 H          60.4918   91.0475    9.6367 H       1  UNL1        0.1466
     20 C          62.5850   90.8483   10.1607 C.3     1  UNL1        0.1211
     21 C          62.9839   90.9593   11.6024 C.3     1  UNL1        0.1522
     22 O          62.0345   90.5237   12.6789 O.3     1  UNL1       -0.3783
     23 H          61.2148   90.1984   12.2749 H       1  UNL1        0.2109
     24 C          64.3323   91.5057   11.9675 C.ar    1  UNL1        0.0067
     25 C          65.1436   92.2455   10.9456 C.ar    1  UNL1       -0.0018
     26 C          66.4919   92.7920   11.3108 C.ar    1  UNL1        0.0006
     27 C          67.0290   92.5987   12.6980 C.ar    1  UNL1        0.0114
     28 C          66.2176   91.8589   13.7199 C.ar    1  UNL1        0.0574
     29 CL         66.7547   91.6655   15.1070 Cl      1  UNL1       -0.0823
     30 C          64.8693   91.3124   13.3547 C.ar    1  UNL1        0.0095
     31 N          60.0681   93.2822    2.3009 N.pl3   1  UNL1       -0.3046
     32 C          60.4342   94.7132    2.5623 C.3     1  UNL1        0.1081
     33 C          60.8819   95.5914    1.4317 C.3     1  UNL1        0.0938
     34 N          60.9636   95.0387    0.0397 N.3     1  UNL1       -0.2688
     35 C          60.5975   93.6077   -0.2217 C.3     1  UNL1        0.0938
     36 C          60.1498   92.7295    0.9089 C.3     1  UNL1        0.1081
     37 C          61.4113   95.9168   -1.0909 C.3     1  UNL1        0.0885
     38 C          62.8466   95.9051   -1.5267 C.3     1  UNL1        0.1227
     39 C          63.8851   95.2432   -0.6703 C.1     1  UNL1        0.0746
     40 N          64.9236   94.5814    0.1861 N.1     1  UNL1       -0.1958
@<TRIPOS>BOND
     1     1     2    1
     2     2     3    2
     3     3     4    1
     4     4    31    1
     5    31    32    1
     6    32    33    1
     7    33    34    1
     8    34    37    1
     9    37    38    1
    10    38    39    1
    11    39    40    3
    12    34    35    1
    13    35    36    1
    14     4     5    2
    15     5     6    1
    16     6     7    2
    17     7     8    1
    18     8    11    1
    19    11    12    1
    20    12    18    1
    21    18    20    1
    22    20    21    1
    23    21    22    1
    24    21    24    1
    25    24    25   ar
    26    25    26   ar
    27    26    27   ar
    28    27    28   ar
    29    28    29    1
    30    28    30   ar
    31    12    13    2
    32    13    14    1
    33    14    15    2
    34    15    16    1
    35    16    17    2
    36     8     9    2
    37     9    10    1
    38    10     2    1
    39    36    31    1
    40    10     6    1
    41    16    11    1
    42    30    24   ar
    43    18    19    1
    44    22    23    1
@<TRIPOS>MOLECULE
*****
 40 44 0 0 0
SMALL
GASTEIGER

@<TRIPOS>ATOM
      1 C          59.9897   87.4444    9.6667 C.3     1  UNL1        0.0312
      2 C          61.2474   87.6156   10.4660 C.2     1  UNL1        0.0136
      3 C          61.8828   88.9692   10.5837 C.2     1  UNL1        0.0107
      4 C          63.1404   89.1405   11.3830 C.2     1  UNL1        0.0510
      5 C          63.7627   87.9581   12.0647 C.2     1  UNL1        0.0613
      6 C          63.1273   86.6045   11.9471 C.2     1  UNL1        0.2246
      7 N          63.5087   85.2649   12.5039 N.2     1  UNL1       -0.0378
      8 C          62.4868   84.2657   12.0486 C.2     1  UNL1        0.3605
      9 N          61.4737   84.9878   11.2105 N.2     1  UNL1       -0.0547
     10 C          61.8696   86.4332   11.1478 C.3     1  UNL1        0.2976
     11 C          62.4791   82.8015   12.3743 C.3     1  UNL1        0.2246
     12 C          62.1216   82.3425   13.7569 C.2     1  UNL1        0.0436
     13 C          62.1140   80.8783   14.0825 C.2     1  UNL1        0.0288
     14 C          62.4639   79.8730   13.0256 C.2     1  UNL1        0.0896
     15 N          62.8214   80.3320   11.6430 N.am    1  UNL1       -0.1770
     16 C          62.8290   81.7963   11.3174 C.2     1  UNL1        0.2627
     17 O          63.1865   82.2552    9.9348 O.2     1  UNL1       -0.2719
     18 N          61.7717   83.3477   14.8138 N.pl3   1  UNL1       -0.3329
     19 H          60.8994   83.8035   14.7901 H       1  UNL1        0.1466
     20 C          62.7508   83.6584   15.9069 C.3     1  UNL1        0.1211
     21 C          63.7845   84.7266   15.7065 C.3     1  UNL1        0.1522
     22 O          65.0582   84.4109   14.9799 O.3     1  UNL1       -0.3783
     23 H          65.0533   83.4796   14.7085 H       1  UNL1        0.2109
     24 C          63.5446   86.1106   16.2328 C.ar    1  UNL1        0.0067
     25 C          62.8225   86.3038   17.5333 C.ar    1  UNL1       -0.0018
     26 C          62.5826   87.6878   18.0596 C.ar    1  UNL1        0.0006
     27 C          63.0648   88.8787   17.2854 C.ar    1  UNL1        0.0114
     28 C          63.7869   88.6855   15.9850 C.ar    1  UNL1        0.0574
     29 CL         64.2691   89.8763   15.2108 Cl      1  UNL1       -0.0823
     30 C          64.0268   87.3015   15.4587 C.ar    1  UNL1        0.0095
     31 N          63.7758   90.4942   11.5006 N.pl3   1  UNL1       -0.3046
     32 C          63.7546   91.4367   10.3338 C.3     1  UNL1        0.1081
     33 C          64.3900   92.7903   10.4514 C.3     1  UNL1        0.0938
     34 N          65.0467   93.2016   11.7358 N.3     1  UNL1       -0.2688
     35 C          65.0680   92.2591   12.9025 C.3     1  UNL1        0.0938
     36 C          64.4325   90.9055   12.7849 C.3     1  UNL1        0.1081
     37 C          65.6821   94.5552   11.8534 C.3     1  UNL1        0.0885
     38 C          66.3334   95.1845   10.6577 C.3     1  UNL1        0.1227
     39 C          67.5003   94.5114    9.9980 C.1     1  UNL1        0.0746
     40 N          68.6671   93.8382    9.3382 N.1     1  UNL1       -0.1958
@<TRIPOS>BOND
     1     1     2    1
     2     2     3    2
     3     3     4    1
     4     4    31    1
     5    31    32    1
     6    32    33    1
     7    33    34    1
     8    34    37    1
     9    37    38    1
    10    38    39    1
    11    39    40    3
    12    34    35    1
    13    35    36    1
    14     4     5    2
    15     5     6    1
    16     6     7    2
    17     7     8    1
    18     8    11    1
    19    11    12    1
    20    12    18    1
    21    18    20    1
    22    20    21    1
    23    21    22    1
    24    21    24    1
    25    24    25   ar
    26    25    26   ar
    27    26    27   ar
    28    27    28   ar
    29    28    29    1
    30    28    30   ar
    31    12    13    2
    32    13    14    1
    33    14    15    2
    34    15    16    1
    35    16    17    2
    36     8     9    2
    37     9    10    1
    38    10     2    1
    39    36    31    1
    40    10     6    1
    41    16    11    1
    42    30    24   ar
    43    18    19    1
    44    22    23    1
@<TRIPOS>MOLECULE
*****
 40 44 0 0 0
SMALL
GASTEIGER

@<TRIPOS>ATOM
      1 C          58.7111   86.6979    8.3848 C.3     1  UNL1        0.0312
      2 C          59.5515   87.9207    8.1643 C.2     1  UNL1        0.0136
      3 C          59.3292   88.7748    6.9514 C.2     1  UNL1        0.0107
      4 C          60.1696   89.9975    6.7309 C.2     1  UNL1        0.0510
      5 C          61.2323   90.3662    7.7233 C.2     1  UNL1        0.0613
      6 C          61.4546   89.5121    8.9362 C.2     1  UNL1        0.2246
      7 N          62.4198   89.6235   10.0789 N.2     1  UNL1       -0.0378
      8 C          62.1760   88.4695   11.0057 C.2     1  UNL1        0.3605
      9 N          61.0601   87.6450   10.4357 N.2     1  UNL1       -0.0547
     10 C          60.6142   88.2894    9.1567 C.3     1  UNL1        0.2976
     11 C          62.9179   88.1892   12.2789 C.3     1  UNL1        0.2246
     12 C          63.3981   89.3252   13.1327 C.2     1  UNL1        0.0436
     13 C          64.1400   89.0448   14.4060 C.2     1  UNL1        0.0288
     14 C          64.4016   87.6286   14.8254 C.2     1  UNL1        0.0896
     15 N          63.9213   86.4927   13.9716 N.am    1  UNL1       -0.1770
     16 C          63.1795   86.7731   12.6983 C.2     1  UNL1        0.2627
     17 O          62.6992   85.6371   11.8445 O.2     1  UNL1       -0.2719
     18 N          63.1365   90.7414   12.7134 N.pl3   1  UNL1       -0.3329
     19 H          62.3592   91.2260   13.0743 H       1  UNL1        0.1466
     20 C          64.0591   91.4193   11.7443 C.3     1  UNL1        0.1211
     21 C          65.1505   92.3158   12.2495 C.3     1  UNL1        0.1522
     22 O          65.3627   92.4806   13.7252 O.3     1  UNL1       -0.3783
     23 H          64.7149   91.9430   14.2071 H       1  UNL1        0.2109
     24 C          66.0295   93.0474   11.2790 C.ar    1  UNL1        0.0067
     25 C          65.8770   94.5286   11.0982 C.ar    1  UNL1       -0.0018
     26 C          66.7561   95.2602   10.1277 C.ar    1  UNL1        0.0006
     27 C          67.7878   94.5106    9.3379 C.ar    1  UNL1        0.0114
     28 C          67.9403   93.0294    9.5187 C.ar    1  UNL1        0.0574
     29 CL         68.9720   92.2799    8.7289 Cl      1  UNL1       -0.0823
     30 C          67.0612   92.2978   10.4892 C.ar    1  UNL1        0.0095
     31 N          59.9473   90.8516    5.5180 N.pl3   1  UNL1       -0.3046
     32 C          61.1133   91.2743    4.6744 C.3     1  UNL1        0.1081
     33 C          60.8911   92.1284    3.4615 C.3     1  UNL1        0.0938
     34 N          59.5027   92.5598    3.0922 N.3     1  UNL1       -0.2688
     35 C          58.3366   92.1370    3.9357 C.3     1  UNL1        0.0938
     36 C          58.5589   91.2829    5.1486 C.3     1  UNL1        0.1081
     37 C          59.2804   93.4138    1.8793 C.3     1  UNL1        0.0885
     38 C          59.2925   92.7943    0.5133 C.3     1  UNL1        0.1227
     39 C          58.0347   92.7534   -0.3030 C.1     1  UNL1        0.0746
     40 N          56.7769   92.7127   -1.1192 N.1     1  UNL1       -0.1958
@<TRIPOS>BOND
     1     1     2    1
     2     2     3    2
     3     3     4    1
     4     4    31    1
     5    31    32    1
     6    32    33    1
     7    33    34    1
     8    34    37    1
     9    37    38    1
    10    38    39    1
    11    39    40    3
    12    34    35    1
    13    35    36    1
    14     4     5    2
    15     5     6    1
    16     6     7    2
    17     7     8    1
    18     8    11    1
    19    11    12    1
    20    12    18    1
    21    18    20    1
    22    20    21    1
    23    21    22    1
    24    21    24    1
    25    24    25   ar
    26    25    26   ar
    27    26    27   ar
    28    27    28   ar
    29    28    29    1
    30    28    30   ar
    31    12    13    2
    32    13    14    1
    33    14    15    2
    34    15    16    1
    35    16    17    2
    36     8     9    2
    37     9    10    1
    38    10     2    1
    39    36    31    1
    40    10     6    1
    41    16    11    1
    42    30    24   ar
    43    18    19    1
    44    22    23    1
@<TRIPOS>MOLECULE
*****
 40 44 0 0 0
SMALL
GASTEIGER

@<TRIPOS>ATOM
      1 C          58.3985   86.0991    8.1275 C.3     1  UNL1        0.0312
      2 C          59.3184   87.2815    8.0508 C.2     1  UNL1        0.0136
      3 C          59.1400   88.3013    6.9655 C.2     1  UNL1        0.0107
      4 C          60.0598   89.4836    6.8888 C.2     1  UNL1        0.0510
      5 C          61.1581   89.6462    7.8975 C.2     1  UNL1        0.0613
      6 C          61.3364   88.6263    8.9828 C.2     1  UNL1        0.2246
      7 N          62.3217   88.5210   10.1089 N.2     1  UNL1       -0.0378
      8 C          62.0108   87.2735   10.8816 C.2     1  UNL1        0.3605
      9 N          60.8333   86.6078   10.2331 N.2     1  UNL1       -0.0547
     10 C          60.4166   87.4440    9.0595 C.3     1  UNL1        0.2976
     11 C          62.7478   86.7785   12.0906 C.3     1  UNL1        0.2246
     12 C          63.4023   87.7552   13.0221 C.2     1  UNL1        0.0436
     13 C          64.1393   87.2601   14.2311 C.2     1  UNL1        0.0288
     14 C          64.2219   85.7884   14.5087 C.2     1  UNL1        0.0896
     15 N          63.5675   84.8116   13.5772 N.am    1  UNL1       -0.1770
     16 C          62.8304   85.3067   12.3682 C.2     1  UNL1        0.2627
     17 O          62.1760   84.3300   11.4367 O.2     1  UNL1       -0.2719
     18 N          63.3197   89.2270   12.7446 N.pl3   1  UNL1       -0.3329
     19 H          63.5448   89.5728   11.8507 H       1  UNL1        0.1466
     20 C          62.8943   90.1720   13.8290 C.3     1  UNL1        0.1211
     21 C          63.9163   91.0143   14.5333 C.3     1  UNL1        0.1522
     22 O          63.7264   91.3728   15.9774 O.3     1  UNL1       -0.3783
     23 H          62.8992   90.9832   16.3012 H       1  UNL1        0.2109
     24 C          65.1281   91.4981   13.7935 C.ar    1  UNL1        0.0067
     25 C          66.4832   91.4015   14.4293 C.ar    1  UNL1       -0.0018
     26 C          67.6951   91.8853   13.6895 C.ar    1  UNL1        0.0006
     27 C          67.5518   92.4658   12.3138 C.ar    1  UNL1        0.0114
     28 C          66.1967   92.5625   11.6780 C.ar    1  UNL1        0.0574
     29 CL         66.0534   93.1431   10.3024 Cl      1  UNL1       -0.0823
     30 C          64.9849   92.0787   12.4178 C.ar    1  UNL1        0.0095
     31 N          59.8813   90.5035    5.8033 N.pl3   1  UNL1       -0.3046
     32 C          58.5180   91.0562    5.5102 C.3     1  UNL1        0.1081
     33 C          58.3396   92.0761    4.4248 C.3     1  UNL1        0.0938
     34 N          59.5245   92.5433    3.6326 N.3     1  UNL1       -0.2688
     35 C          60.8878   91.9906    3.9257 C.3     1  UNL1        0.0938
     36 C          61.0663   90.9707    5.0110 C.3     1  UNL1        0.1081
     37 C          59.3462   93.5631    2.5472 C.3     1  UNL1        0.0885
     38 C          59.7028   93.2212    1.1308 C.3     1  UNL1        0.1227
     39 C          58.6386   93.1987    0.0740 C.1     1  UNL1        0.0746
     40 N          57.5745   93.1764   -0.9829 N.1     1  UNL1       -0.1958
@<TRIPOS>BOND
     1     1     2    1
     2     2     3    2
     3     3     4    1
     4     4    31    1
     5    31    32    1
     6    32    33    1
     7    33    34    1
     8    34    37    1
     9    37    38    1
    10    38    39    1
    11    39    40    3
    12    34    35    1
    13    35    36    1
    14     4     5    2
    15     5     6    1
    16     6     7    2
    17     7     8    1
    18     8    11    1
    19    11    12    1
    20    12    18    1
    21    18    20    1
    22    20    21    1
    23    21    22    1
    24    21    24    1
    25    24    25   ar
    26    25    26   ar
    27    26    27   ar
    28    27    28   ar
    29    28    29    1
    30    28    30   ar
    31    12    13    2
    32    13    14    1
    33    14    15    2
    34    15    16    1
    35    16    17    2
    36     8     9    2
    37     9    10    1
    38    10     2    1
    39    36    31    1
    40    10     6    1
    41    16    11    1
    42    30    24   ar
    43    18    19    1
    44    22    23    1
@<TRIPOS>MOLECULE
*****
 40 44 0 0 0
SMALL
GASTEIGER

@<TRIPOS>ATOM
      1 C          58.4060   86.3445    8.1744 C.3     1  UNL1        0.0312
      2 C          59.3168   87.5292    8.0443 C.2     1  UNL1        0.0136
      3 C          59.1314   88.4971    6.9134 C.2     1  UNL1        0.0107
      4 C          60.0421   89.6818    6.7833 C.2     1  UNL1        0.0510
      5 C          61.1384   89.8987    7.7840 C.2     1  UNL1        0.0613
      6 C          61.3238   88.9308    8.9148 C.2     1  UNL1        0.2246
      7 N          62.3089   88.8845   10.0450 N.2     1  UNL1       -0.0378
      8 C          62.0070   87.6712   10.8736 C.2     1  UNL1        0.3605
      9 N          60.8353   86.9676   10.2556 N.2     1  UNL1       -0.0547
     10 C          60.4130   87.7460    9.0450 C.3     1  UNL1        0.2976
     11 C          62.7469   87.2375   12.1043 C.3     1  UNL1        0.2246
     12 C          63.4271   88.2573   12.9688 C.2     1  UNL1        0.0436
     13 C          64.1670   87.8235   14.1995 C.2     1  UNL1        0.0288
     14 C          64.2268   86.3701   14.5656 C.2     1  UNL1        0.0896
     15 N          63.5466   85.3504   13.7010 N.am    1  UNL1       -0.1770
     16 C          62.8067   85.7841   12.4703 C.2     1  UNL1        0.2627
     17 O          62.1266   84.7644   11.6058 O.2     1  UNL1       -0.2719
     18 N          63.3673   89.7107   12.6028 N.pl3   1  UNL1       -0.3329
     19 H          62.9920   89.9847   11.7349 H       1  UNL1        0.1466
     20 C          63.8795   90.7466   13.5591 C.3     1  UNL1        0.1211
     21 C          64.9447   91.7084   13.1230 C.3     1  UNL1        0.1522
     22 O          64.8712   92.3445   11.7665 O.3     1  UNL1       -0.3783
     23 H          64.0796   92.0283   11.3037 H       1  UNL1        0.2109
     24 C          66.0835   92.0342   14.0434 C.ar    1  UNL1        0.0067
     25 C          65.8100   92.4280   15.4647 C.ar    1  UNL1       -0.0018
     26 C          66.9488   92.7538   16.3851 C.ar    1  UNL1        0.0006
     27 C          68.3610   92.6857   15.8842 C.ar    1  UNL1        0.0114
     28 C          68.6345   92.2919   14.4630 C.ar    1  UNL1        0.0574
     29 CL         70.0468   92.2238   13.9621 Cl      1  UNL1       -0.0823
     30 C          67.4957   91.9661   13.5425 C.ar    1  UNL1        0.0095
     31 N          59.8567   90.6497    5.6524 N.pl3   1  UNL1       -0.3046
     32 C          58.4922   91.1918    5.3452 C.3     1  UNL1        0.1081
     33 C          58.3068   92.1597    4.2144 C.3     1  UNL1        0.0938
     34 N          59.4859   92.5855    3.3907 N.3     1  UNL1       -0.2688
     35 C          60.8504   92.0434    3.6978 C.3     1  UNL1        0.0938
     36 C          61.0358   91.0755    4.8287 C.3     1  UNL1        0.1081
     37 C          59.3006   93.5533    2.2599 C.3     1  UNL1        0.0885
     38 C          59.3274   93.0643    0.8421 C.3     1  UNL1        0.1227
     39 C          58.9117   93.9762   -0.2740 C.1     1  UNL1        0.0746
     40 N          58.4959   94.8882   -1.3899 N.1     1  UNL1       -0.1958
@<TRIPOS>BOND
     1     1     2    1
     2     2     3    2
     3     3     4    1
     4     4    31    1
     5    31    32    1
     6    32    33    1
     7    33    34    1
     8    34    37    1
     9    37    38    1
    10    38    39    1
    11    39    40    3
    12    34    35    1
    13    35    36    1
    14     4     5    2
    15     5     6    1
    16     6     7    2
    17     7     8    1
    18     8    11    1
    19    11    12    1
    20    12    18    1
    21    18    20    1
    22    20    21    1
    23    21    22    1
    24    21    24    1
    25    24    25   ar
    26    25    26   ar
    27    26    27   ar
    28    27    28   ar
    29    28    29    1
    30    28    30   ar
    31    12    13    2
    32    13    14    1
    33    14    15    2
    34    15    16    1
    35    16    17    2
    36     8     9    2
    37     9    10    1
    38    10     2    1
    39    36    31    1
    40    10     6    1
    41    16    11    1
    42    30    24   ar
    43    18    19    1
    44    22    23    1
@<TRIPOS>MOLECULE
*****
 40 44 0 0 0
SMALL
GASTEIGER

@<TRIPOS>ATOM
      1 C          62.7443   84.1411    7.4919 C.3     1  UNL1        0.0312
      2 C          62.1070   85.3100    8.1828 C.2     1  UNL1        0.0136
      3 C          61.3870   86.3536    7.3813 C.2     1  UNL1        0.0107
      4 C          60.7497   87.5226    8.0721 C.2     1  UNL1        0.0510
      5 C          60.8324   87.6480    9.5646 C.2     1  UNL1        0.0613
      6 C          61.5524   86.6044   10.3662 C.2     1  UNL1        0.2246
      7 N          61.7962   86.4615   11.8393 N.2     1  UNL1       -0.0378
      8 C          62.5842   85.2042   12.0588 C.2     1  UNL1        0.3605
      9 N          62.8274   84.5700   10.7214 N.2     1  UNL1       -0.0547
     10 C          62.1897   85.4354    9.6753 C.3     1  UNL1        0.2976
     11 C          63.0476   84.6741   13.3833 C.3     1  UNL1        0.2246
     12 C          63.7336   85.5854   14.3574 C.2     1  UNL1        0.0436
     13 C          64.1971   85.0552   15.6819 C.2     1  UNL1        0.0288
     14 C          63.9745   83.6137   16.0322 C.2     1  UNL1        0.0896
     15 N          63.2885   82.7025   15.0581 N.am    1  UNL1       -0.1770
     16 C          62.8251   83.2327   13.7336 C.2     1  UNL1        0.2627
     17 O          62.1391   82.3214   12.7595 O.2     1  UNL1       -0.2719
     18 N          63.9562   87.0268   14.0072 N.pl3   1  UNL1       -0.3329
     19 H          63.9102   87.3179   13.0678 H       1  UNL1        0.1466
     20 C          64.2490   88.0248   15.0881 C.3     1  UNL1        0.1211
     21 C          63.6739   89.4078   15.0077 C.3     1  UNL1        0.1522
     22 O          62.6500   89.8537   16.0091 O.3     1  UNL1       -0.3783
     23 H          62.4738   89.1331   16.6341 H       1  UNL1        0.2109
     24 C          64.1226   90.3449   13.9258 C.ar    1  UNL1        0.0067
     25 C          65.2736   91.2754   14.1693 C.ar    1  UNL1       -0.0018
     26 C          65.7224   92.2125   13.0875 C.ar    1  UNL1        0.0006
     27 C          65.0201   92.2192   11.7620 C.ar    1  UNL1        0.0114
     28 C          63.8691   91.2887   11.5185 C.ar    1  UNL1        0.0574
     29 CL         63.1669   91.2953   10.1931 Cl      1  UNL1       -0.0823
     30 C          63.4204   90.3515   12.6004 C.ar    1  UNL1        0.0095
     31 N          60.0297   88.5662    7.2705 N.pl3   1  UNL1       -0.3046
     32 C          58.5312   88.5589    7.2036 C.3     1  UNL1        0.1081
     33 C          57.8112   89.6025    6.4020 C.3     1  UNL1        0.0938
     34 N          58.5897   90.6533    5.6673 N.3     1  UNL1       -0.2688
     35 C          60.0882   90.6606    5.7342 C.3     1  UNL1        0.0938
     36 C          60.8082   89.6170    6.5358 C.3     1  UNL1        0.1081
     37 C          57.8698   91.6969    4.8657 C.3     1  UNL1        0.0885
     38 C          58.6177   92.8849    4.3372 C.3     1  UNL1        0.1227
     39 C          59.4286   92.7626    3.0812 C.1     1  UNL1        0.0746
     40 N          60.2393   92.6404    1.8251 N.1     1  UNL1       -0.1958
@<TRIPOS>BOND
     1     1     2    1
     2     2     3    2
     3     3     4    1
     4     4    31    1
     5    31    32    1
     6    32    33    1
     7    33    34    1
     8    34    37    1
     9    37    38    1
    10    38    39    1
    11    39    40    3
    12    34    35    1
    13    35    36    1
    14     4     5    2
    15     5     6    1
    16     6     7    2
    17     7     8    1
    18     8    11    1
    19    11    12    1
    20    12    18    1
    21    18    20    1
    22    20    21    1
    23    21    22    1
    24    21    24    1
    25    24    25   ar
    26    25    26   ar
    27    26    27   ar
    28    27    28   ar
    29    28    29    1
    30    28    30   ar
    31    12    13    2
    32    13    14    1
    33    14    15    2
    34    15    16    1
    35    16    17    2
    36     8     9    2
    37     9    10    1
    38    10     2    1
    39    36    31    1
    40    10     6    1
    41    16    11    1
    42    30    24   ar
    43    18    19    1
    44    22    23    1
