@<TRIPOS>MOLECULE
*****
 39 41 0 0 0
SMALL
GASTEIGER

@<TRIPOS>ATOM
      1 C          62.5618   89.7300   11.9257 C.3     1  UNL1        0.1281
      2 C          63.0250   89.2155   13.2564 C.2     1  UNL1        0.2325
      3 O          62.7239   89.9891   14.5058 O.2     1  UNL1       -0.2742
      4 N          63.7893   87.9274   13.3377 N.am    1  UNL1       -0.3033
      5 H          63.9870   87.4197   12.5177 H       1  UNL1        0.1495
      6 C          64.2525   87.4129   14.6684 C.3     1  UNL1        0.0941
      7 C          64.8274   86.0319   14.7798 C.3     1  UNL1        0.0492
      8 C          64.0118   84.8441   14.3629 C.ar    1  UNL1       -0.0013
      9 C          63.7725   84.5723   12.9073 C.ar    1  UNL1       -0.0011
     10 C          62.9569   83.3844   12.4904 C.ar    1  UNL1        0.0204
     11 C          62.3806   82.4684   13.5291 C.ar    1  UNL1        0.0989
     12 N          62.6200   82.7403   14.9847 N.ar    1  UNL1       -0.2426
     13 C          63.4356   83.9281   15.4016 C.ar    1  UNL1        0.0946
     14 S          63.5006   90.5128   11.0562 S.3     1  UNL1       -0.1298
     15 C          63.7751   91.9562   11.3582 C.3     1  UNL1        0.0780
     16 C          65.0080   92.3415   12.1209 C.3     1  UNL1        0.0899
     17 C          66.8017   93.6174   10.7407 C.2     1  UNL1        0.4014
     18 O          67.1548   92.3471   10.0254 O.2     1  UNL1       -0.2264
     19 N          65.7283   93.6147   11.7884 N.am    1  UNL1       -0.2711
     20 H          65.4965   94.4484   12.2579 H       1  UNL1        0.1527
     21 O          67.5220   94.8904   10.4082 O.3     1  UNL1       -0.4419
     22 C          67.3192   95.0039    8.2997 C.3     1  UNL1        0.0437
     23 C          66.9094   95.8712    9.4528 C.3     1  UNL1        0.1378
     24 C          66.4996   96.7386   10.6060 C.3     1  UNL1        0.0437
     25 C          66.2968   96.8521    8.4975 C.3     1  UNL1        0.0437
     26 C          65.5205   91.4538   13.2159 C.3     1  UNL1        0.0469
     27 C          66.6084   91.9391   14.1274 C.ar    1  UNL1       -0.0205
     28 C          68.0385   91.8990   13.6762 C.ar    1  UNL1       -0.0042
     29 C          69.1264   92.3843   14.5876 C.ar    1  UNL1       -0.0003
     30 C          68.7844   92.9097   15.9504 C.ar    1  UNL1       -0.0000
     31 C          67.3545   92.9499   16.4016 C.ar    1  UNL1       -0.0003
     32 C          66.2665   92.4645   15.4901 C.ar    1  UNL1       -0.0042
     33 C          61.1599   89.4618   11.4645 C.3     1  UNL1        0.0463
     34 C          60.9010   88.4169   10.4199 C.ar    1  UNL1       -0.0208
     35 C          60.1086   88.7621    9.1940 C.ar    1  UNL1       -0.0042
     36 C          59.8497   87.7172    8.1495 C.ar    1  UNL1       -0.0003
     37 C          60.3831   86.3270    8.3309 C.ar    1  UNL1       -0.0000
     38 C          61.1754   85.9818    9.5568 C.ar    1  UNL1       -0.0003
     39 C          61.4344   87.0267   10.6013 C.ar    1  UNL1       -0.0042
@<TRIPOS>BOND
     1    22    23    1
     2    23    24    1
     3    23    25    1
     4    23    21    1
     5    21    17    1
     6    17    18    2
     7    17    19   am
     8    19    16    1
     9    16    15    1
    10    15    14    1
    11    14     1    1
    12     1    33    1
    13    33    34    1
    14    34    35   ar
    15    35    36   ar
    16    36    37   ar
    17    37    38   ar
    18    38    39   ar
    19     1     2    1
    20     2     3    2
    21     2     4   am
    22     4     6    1
    23     6     7    1
    24     7     8    1
    25     8     9   ar
    26     9    10   ar
    27    10    11   ar
    28    11    12   ar
    29    12    13   ar
    30    16    26    1
    31    26    27    1
    32    27    28   ar
    33    28    29   ar
    34    29    30   ar
    35    30    31   ar
    36    31    32   ar
    37    39    34   ar
    38    13     8   ar
    39    32    27   ar
    40    19    20    1
    41     4     5    1
@<TRIPOS>MOLECULE
*****
 39 41 0 0 0
SMALL
GASTEIGER

@<TRIPOS>ATOM
      1 C          61.2530   87.5243   10.8093 C.3     1  UNL1        0.1281
      2 C          61.6422   88.9160   11.2117 C.2     1  UNL1        0.2325
      3 O          61.3106   89.4200   12.5850 O.2     1  UNL1       -0.2742
      4 N          62.3630   89.8036   10.2408 N.am    1  UNL1       -0.3033
      5 H          62.5806   89.4728    9.3395 H       1  UNL1        0.1495
      6 C          62.7521   91.1952   10.6433 C.3     1  UNL1        0.0941
      7 C          64.1268   91.7090   10.3329 C.3     1  UNL1        0.0492
      8 C          64.9509   92.3458   11.4124 C.ar    1  UNL1       -0.0013
      9 C          65.0415   91.7029   12.7646 C.ar    1  UNL1       -0.0011
     10 C          65.8656   92.3397   13.8442 C.ar    1  UNL1        0.0204
     11 C          66.5990   93.6194   13.5715 C.ar    1  UNL1        0.0989
     12 N          66.5083   94.2624   12.2193 N.ar    1  UNL1       -0.2426
     13 C          65.6843   93.6256   11.1398 C.ar    1  UNL1        0.0946
     14 S          61.6020   86.3631   11.6922 S.3     1  UNL1       -0.1298
     15 C          63.0368   86.0781   12.0245 C.3     1  UNL1        0.0780
     16 C          63.3818   85.3263   13.2758 C.3     1  UNL1        0.0899
     17 C          63.2219   83.1617   14.7039 C.2     1  UNL1        0.4014
     18 O          64.3264   83.6627   15.5867 O.2     1  UNL1       -0.2264
     19 N          62.7496   83.9935   13.5484 N.am    1  UNL1       -0.2711
     20 H          62.0248   83.6648   12.9690 H       1  UNL1        0.1527
     21 O          62.5898   81.8290   14.9765 O.3     1  UNL1       -0.4419
     22 C          60.9362   80.8333   14.0967 C.3     1  UNL1        0.0437
     23 C          62.4179   80.8387   13.8631 C.3     1  UNL1        0.1378
     24 C          63.8996   80.8440   13.6295 C.3     1  UNL1        0.0437
     25 C          62.2459   79.8483   12.7498 C.3     1  UNL1        0.0437
     26 C          64.3589   85.9071   14.2545 C.3     1  UNL1        0.0469
     27 C          63.9737   87.0973   15.0821 C.ar    1  UNL1       -0.0205
     28 C          63.3608   86.9019   16.4372 C.ar    1  UNL1       -0.0042
     29 C          62.9756   88.0921   17.2648 C.ar    1  UNL1       -0.0003
     30 C          63.2033   89.4777   16.7374 C.ar    1  UNL1       -0.0000
     31 C          63.8161   89.6732   15.3824 C.ar    1  UNL1       -0.0003
     32 C          64.2014   88.4830   14.5547 C.ar    1  UNL1       -0.0042
     33 C          60.5150   87.2940    9.5240 C.3     1  UNL1        0.0463
     34 C          61.0638   86.3403    8.5044 C.ar    1  UNL1       -0.0208
     35 C          60.1680   85.7877    7.4357 C.ar    1  UNL1       -0.0042
     36 C          60.7169   84.8341    6.4162 C.ar    1  UNL1       -0.0003
     37 C          62.1614   84.4331    6.4655 C.ar    1  UNL1       -0.0000
     38 C          63.0572   84.9857    7.5342 C.ar    1  UNL1       -0.0003
     39 C          62.5083   85.9393    8.5537 C.ar    1  UNL1       -0.0042
@<TRIPOS>BOND
     1    22    23    1
     2    23    24    1
     3    23    25    1
     4    23    21    1
     5    21    17    1
     6    17    18    2
     7    17    19   am
     8    19    16    1
     9    16    15    1
    10    15    14    1
    11    14     1    1
    12     1    33    1
    13    33    34    1
    14    34    35   ar
    15    35    36   ar
    16    36    37   ar
    17    37    38   ar
    18    38    39   ar
    19     1     2    1
    20     2     3    2
    21     2     4   am
    22     4     6    1
    23     6     7    1
    24     7     8    1
    25     8     9   ar
    26     9    10   ar
    27    10    11   ar
    28    11    12   ar
    29    12    13   ar
    30    16    26    1
    31    26    27    1
    32    27    28   ar
    33    28    29   ar
    34    29    30   ar
    35    30    31   ar
    36    31    32   ar
    37    39    34   ar
    38    13     8   ar
    39    32    27   ar
    40    19    20    1
    41     4     5    1
@<TRIPOS>MOLECULE
*****
 39 41 0 0 0
SMALL
GASTEIGER

@<TRIPOS>ATOM
      1 C          63.4071   89.6307   12.8910 C.3     1  UNL1        0.1281
      2 C          62.5349   88.5750   12.2788 C.2     1  UNL1        0.2325
      3 O          61.1766   88.9357   11.7545 O.2     1  UNL1       -0.2742
      4 N          63.0209   87.1587   12.1908 N.am    1  UNL1       -0.3033
      5 H          63.9124   86.9220   12.5349 H       1  UNL1        0.1495
      6 C          62.1487   86.1031   11.5786 C.3     1  UNL1        0.0941
      7 C          62.7496   84.8086   11.1168 C.3     1  UNL1        0.0492
      8 C          62.7322   83.6099   12.0183 C.ar    1  UNL1       -0.0013
      9 C          62.4184   83.7723   13.4761 C.ar    1  UNL1       -0.0011
     10 C          62.4010   82.5735   14.3776 C.ar    1  UNL1        0.0204
     11 C          62.6974   81.2124   13.8213 C.ar    1  UNL1        0.0989
     12 N          63.0112   81.0500   12.3635 N.ar    1  UNL1       -0.2426
     13 C          63.0286   82.2487   11.4620 C.ar    1  UNL1        0.0946
     14 S          63.2912   91.0556   12.4368 S.3     1  UNL1       -0.1298
     15 C          64.2034   91.5783   11.3669 C.3     1  UNL1        0.0780
     16 C          65.4408   92.3387   11.7419 C.3     1  UNL1        0.0899
     17 C          66.6970   94.3235   10.6316 C.2     1  UNL1        0.4014
     18 O          67.7500   93.3783   10.1335 O.2     1  UNL1       -0.2264
     19 N          65.5424   93.8037   11.4358 N.am    1  UNL1       -0.2711
     20 H          64.8513   94.4240   11.7627 H       1  UNL1        0.1527
     21 O          66.7987   95.7884   10.3255 O.3     1  UNL1       -0.4419
     22 C          65.0189   96.7731    9.7235 C.3     1  UNL1        0.0437
     23 C          66.2688   96.3219    9.0276 C.3     1  UNL1        0.1378
     24 C          67.5186   95.8707    8.3318 C.3     1  UNL1        0.0437
     25 C          65.7388   96.8555    7.7297 C.3     1  UNL1        0.0437
     26 C          66.5764   91.6343   12.4230 C.3     1  UNL1        0.0469
     27 C          67.0104   92.0621   13.7936 C.ar    1  UNL1       -0.0205
     28 C          65.9841   92.3597   14.8464 C.ar    1  UNL1       -0.0042
     29 C          66.4181   92.7875   16.2171 C.ar    1  UNL1       -0.0003
     30 C          67.8782   92.9179   16.5349 C.ar    1  UNL1       -0.0000
     31 C          68.9044   92.6204   15.4821 C.ar    1  UNL1       -0.0003
     32 C          68.4705   92.1925   14.1115 C.ar    1  UNL1       -0.0042
     33 C          64.3953   89.2615   13.9574 C.3     1  UNL1        0.0463
     34 C          64.0112   88.2864   15.0307 C.ar    1  UNL1       -0.0208
     35 C          64.3597   86.8348   14.8848 C.ar    1  UNL1       -0.0042
     36 C          63.9756   85.8599   15.9581 C.ar    1  UNL1       -0.0003
     37 C          63.2431   86.3365   17.1772 C.ar    1  UNL1       -0.0000
     38 C          62.8947   87.7881   17.3230 C.ar    1  UNL1       -0.0003
     39 C          63.2787   88.7631   16.2498 C.ar    1  UNL1       -0.0042
@<TRIPOS>BOND
     1    22    23    1
     2    23    24    1
     3    23    25    1
     4    23    21    1
     5    21    17    1
     6    17    18    2
     7    17    19   am
     8    19    16    1
     9    16    15    1
    10    15    14    1
    11    14     1    1
    12     1    33    1
    13    33    34    1
    14    34    35   ar
    15    35    36   ar
    16    36    37   ar
    17    37    38   ar
    18    38    39   ar
    19     1     2    1
    20     2     3    2
    21     2     4   am
    22     4     6    1
    23     6     7    1
    24     7     8    1
    25     8     9   ar
    26     9    10   ar
    27    10    11   ar
    28    11    12   ar
    29    12    13   ar
    30    16    26    1
    31    26    27    1
    32    27    28   ar
    33    28    29   ar
    34    29    30   ar
    35    30    31   ar
    36    31    32   ar
    37    39    34   ar
    38    13     8   ar
    39    32    27   ar
    40    19    20    1
    41     4     5    1
@<TRIPOS>MOLECULE
*****
 39 41 0 0 0
SMALL
GASTEIGER

@<TRIPOS>ATOM
      1 C          61.5160   88.3825   11.1090 C.3     1  UNL1        0.1281
      2 C          60.5736   89.1671   10.2451 C.2     1  UNL1        0.2325
      3 O          59.8628   90.3635   10.8048 O.2     1  UNL1       -0.2742
      4 N          60.3420   88.7552    8.8215 N.am    1  UNL1       -0.3033
      5 H          60.8085   87.9699    8.4541 H       1  UNL1        0.1495
      6 C          59.3996   89.5398    7.9576 C.3     1  UNL1        0.0941
      7 C          59.3590   89.2959    6.4781 C.3     1  UNL1        0.0492
      8 C          59.4717   90.4483    5.5246 C.ar    1  UNL1       -0.0013
      9 C          60.8006   90.7956    4.9218 C.ar    1  UNL1       -0.0011
     10 C          60.9133   91.9481    3.9682 C.ar    1  UNL1        0.0204
     11 C          59.6972   92.7531    3.6176 C.ar    1  UNL1        0.0989
     12 N          58.3683   92.4057    4.2205 N.ar    1  UNL1       -0.2426
     13 C          58.2556   91.2533    5.1740 C.ar    1  UNL1        0.0946
     14 S          62.7846   89.0140   11.6009 S.3     1  UNL1       -0.1298
     15 C          62.7316   90.0854   12.6494 C.3     1  UNL1        0.0780
     16 C          63.9763   90.4691   13.3933 C.3     1  UNL1        0.0899
     17 C          65.8639   92.2484   13.2471 C.2     1  UNL1        0.4014
     18 O          65.4403   92.8067   14.5733 O.2     1  UNL1       -0.2264
     19 N          65.1319   91.0796   12.6570 N.am    1  UNL1       -0.2711
     20 H          65.4100   90.7131   11.7866 H       1  UNL1        0.1527
     21 O          67.0195   92.8588   12.5109 O.3     1  UNL1       -0.4419
     22 C          67.5715   92.2741   10.5479 C.3     1  UNL1        0.0437
     23 C          66.8175   93.4287   11.1382 C.3     1  UNL1        0.1378
     24 C          66.0634   94.5833   11.7284 C.3     1  UNL1        0.0437
     25 C          66.6155   93.9985    9.7654 C.3     1  UNL1        0.0437
     26 C          64.0655   90.2423   14.8733 C.3     1  UNL1        0.0469
     27 C          63.8559   88.8675   15.4353 C.ar    1  UNL1       -0.0205
     28 C          64.3795   87.6690   14.7007 C.ar    1  UNL1       -0.0042
     29 C          64.1699   86.2942   15.2627 C.ar    1  UNL1       -0.0003
     30 C          63.4367   86.1178   16.5594 C.ar    1  UNL1       -0.0000
     31 C          62.9130   87.3162   17.2940 C.ar    1  UNL1       -0.0003
     32 C          63.1226   88.6911   16.7319 C.ar    1  UNL1       -0.0042
     33 C          61.1898   86.9665   11.4811 C.3     1  UNL1        0.0463
     34 C          62.0652   85.8452   11.0050 C.ar    1  UNL1       -0.0208
     35 C          62.6146   84.8536   11.9873 C.ar    1  UNL1       -0.0042
     36 C          63.4899   83.7324   11.5111 C.ar    1  UNL1       -0.0003
     37 C          63.8158   83.6028   10.0527 C.ar    1  UNL1       -0.0000
     38 C          63.2664   84.5944    9.0704 C.ar    1  UNL1       -0.0003
     39 C          62.3911   85.7156    9.5466 C.ar    1  UNL1       -0.0042
@<TRIPOS>BOND
     1    22    23    1
     2    23    24    1
     3    23    25    1
     4    23    21    1
     5    21    17    1
     6    17    18    2
     7    17    19   am
     8    19    16    1
     9    16    15    1
    10    15    14    1
    11    14     1    1
    12     1    33    1
    13    33    34    1
    14    34    35   ar
    15    35    36   ar
    16    36    37   ar
    17    37    38   ar
    18    38    39   ar
    19     1     2    1
    20     2     3    2
    21     2     4   am
    22     4     6    1
    23     6     7    1
    24     7     8    1
    25     8     9   ar
    26     9    10   ar
    27    10    11   ar
    28    11    12   ar
    29    12    13   ar
    30    16    26    1
    31    26    27    1
    32    27    28   ar
    33    28    29   ar
    34    29    30   ar
    35    30    31   ar
    36    31    32   ar
    37    39    34   ar
    38    13     8   ar
    39    32    27   ar
    40    19    20    1
    41     4     5    1
@<TRIPOS>MOLECULE
*****
 39 41 0 0 0
SMALL
GASTEIGER

@<TRIPOS>ATOM
      1 C          62.0938   89.2792   11.0505 C.3     1  UNL1        0.1281
      2 C          61.7133   87.9601   11.6550 C.2     1  UNL1        0.2325
      3 O          60.3028   87.7204   12.1053 O.2     1  UNL1       -0.2742
      4 N          62.7435   86.8807   11.8090 N.am    1  UNL1       -0.3033
      5 H          63.6693   87.0380   11.5134 H       1  UNL1        0.1495
      6 C          62.3630   85.5617   12.4135 C.3     1  UNL1        0.0941
      7 C          63.4163   84.5279   12.6816 C.3     1  UNL1        0.0492
      8 C          63.0229   83.0993   12.9149 C.ar    1  UNL1       -0.0013
      9 C          63.1334   82.0998   11.8019 C.ar    1  UNL1       -0.0011
     10 C          62.7399   80.6711   12.0351 C.ar    1  UNL1        0.0204
     11 C          62.2360   80.2421   13.3813 C.ar    1  UNL1        0.0989
     12 N          62.1256   81.2418   14.4942 N.ar    1  UNL1       -0.2426
     13 C          62.5190   82.6703   14.2610 C.ar    1  UNL1        0.0946
     14 S          62.8569   90.2837   11.8619 S.3     1  UNL1       -0.1298
     15 C          62.9271   90.1452   13.3539 C.3     1  UNL1        0.0780
     16 C          64.2282   89.7974   14.0144 C.3     1  UNL1        0.0899
     17 C          64.8736   91.8022   15.5358 C.2     1  UNL1        0.4014
     18 O          63.5935   91.6345   16.2996 O.2     1  UNL1       -0.2264
     19 N          65.1910   90.8836   14.3932 N.am    1  UNL1       -0.2711
     20 H          66.0311   90.9936   13.8918 H       1  UNL1        0.1527
     21 O          65.8363   92.8883   15.9145 O.3     1  UNL1       -0.4419
     22 C          67.7500   92.1381   16.4387 C.3     1  UNL1        0.0437
     23 C          67.2000   92.9327   15.2914 C.3     1  UNL1        0.1378
     24 C          66.6500   93.7272   14.1442 C.3     1  UNL1        0.0437
     25 C          68.5638   92.9770   14.6684 C.3     1  UNL1        0.0437
     26 C          64.5665   88.3635   14.2962 C.3     1  UNL1        0.0469
     27 C          63.9578   87.6674   15.4772 C.ar    1  UNL1       -0.0205
     28 C          64.0260   86.1728   15.5840 C.ar    1  UNL1       -0.0042
     29 C          63.4173   85.4767   16.7650 C.ar    1  UNL1       -0.0003
     30 C          62.7402   86.2752   17.8393 C.ar    1  UNL1       -0.0000
     31 C          62.6719   87.7698   17.7325 C.ar    1  UNL1       -0.0003
     32 C          63.2807   88.4660   16.5514 C.ar    1  UNL1       -0.0042
     33 C          61.7110   89.5937    9.6347 C.3     1  UNL1        0.0463
     34 C          60.8775   88.6242    8.8501 C.ar    1  UNL1       -0.0208
     35 C          61.2670   87.1769    8.7907 C.ar    1  UNL1       -0.0042
     36 C          60.4336   86.2075    8.0061 C.ar    1  UNL1       -0.0003
     37 C          59.2107   86.6854    7.2809 C.ar    1  UNL1       -0.0000
     38 C          58.8212   88.1327    7.3402 C.ar    1  UNL1       -0.0003
     39 C          59.6546   89.1021    8.1248 C.ar    1  UNL1       -0.0042
@<TRIPOS>BOND
     1    22    23    1
     2    23    24    1
     3    23    25    1
     4    23    21    1
     5    21    17    1
     6    17    18    2
     7    17    19   am
     8    19    16    1
     9    16    15    1
    10    15    14    1
    11    14     1    1
    12     1    33    1
    13    33    34    1
    14    34    35   ar
    15    35    36   ar
    16    36    37   ar
    17    37    38   ar
    18    38    39   ar
    19     1     2    1
    20     2     3    2
    21     2     4   am
    22     4     6    1
    23     6     7    1
    24     7     8    1
    25     8     9   ar
    26     9    10   ar
    27    10    11   ar
    28    11    12   ar
    29    12    13   ar
    30    16    26    1
    31    26    27    1
    32    27    28   ar
    33    28    29   ar
    34    29    30   ar
    35    30    31   ar
    36    31    32   ar
    37    39    34   ar
    38    13     8   ar
    39    32    27   ar
    40    19    20    1
    41     4     5    1
@<TRIPOS>MOLECULE
*****
 39 41 0 0 0
SMALL
GASTEIGER

@<TRIPOS>ATOM
      1 C          62.6304   89.1148   11.8135 C.3     1  UNL1        0.1281
      2 C          63.2335   88.1734   12.8135 C.2     1  UNL1        0.2325
      3 O          63.9103   88.7132   14.0385 O.2     1  UNL1       -0.2742
      4 N          63.1598   86.6922   12.5886 N.am    1  UNL1       -0.3033
      5 H          62.7155   86.3379   11.7846 H       1  UNL1        0.1495
      6 C          63.7628   85.7508   13.5886 C.3     1  UNL1        0.0941
      7 C          62.9069   84.7141   14.2538 C.3     1  UNL1        0.0492
      8 C          62.8216   83.3309   13.6797 C.ar    1  UNL1       -0.0013
      9 C          62.0434   82.2679   14.3968 C.ar    1  UNL1       -0.0011
     10 C          61.9581   80.8847   13.8227 C.ar    1  UNL1        0.0204
     11 C          62.6510   80.5646   12.5314 C.ar    1  UNL1        0.0989
     12 N          63.4292   81.6278   11.8142 N.ar    1  UNL1       -0.2426
     13 C          63.5145   83.0109   12.3884 C.ar    1  UNL1        0.0946
     14 S          63.4941   90.1261   11.1197 S.3     1  UNL1       -0.1298
     15 C          63.5428   91.5397   11.6193 C.3     1  UNL1        0.0780
     16 C          64.7628   92.0410   12.3337 C.3     1  UNL1        0.0899
     17 C          66.3877   93.5422   10.9713 C.2     1  UNL1        0.4014
     18 O          66.9053   92.3308   10.2539 O.2     1  UNL1       -0.2264
     19 N          65.3164   93.3973   12.0112 N.am    1  UNL1       -0.2711
     20 H          64.9767   94.1924   12.4821 H       1  UNL1        0.1527
     21 O          66.9413   94.8985   10.6488 O.3     1  UNL1       -0.4419
     22 C          65.4219   96.2380   10.0188 C.3     1  UNL1        0.0437
     23 C          66.5855   95.5651    9.3531 C.3     1  UNL1        0.1378
     24 C          67.7491   94.8922    8.6873 C.3     1  UNL1        0.0437
     25 C          66.2296   96.2318    8.0573 C.3     1  UNL1        0.0437
     26 C          65.4290   91.1861   13.3706 C.3     1  UNL1        0.0469
     27 C          66.5087   91.7630   14.2373 C.ar    1  UNL1       -0.0205
     28 C          66.1697   92.3148   15.5904 C.ar    1  UNL1       -0.0042
     29 C          67.2494   92.8918   16.4572 C.ar    1  UNL1       -0.0003
     30 C          68.6682   92.9169   15.9710 C.ar    1  UNL1       -0.0000
     31 C          69.0073   92.3651   14.6180 C.ar    1  UNL1       -0.0003
     32 C          67.9276   91.7882   13.7512 C.ar    1  UNL1       -0.0042
     33 C          61.1637   89.0449   11.5072 C.3     1  UNL1        0.0463
     34 C          60.6943   88.4295   10.2223 C.ar    1  UNL1       -0.0208
     35 C          60.8050   86.9480   10.0158 C.ar    1  UNL1       -0.0042
     36 C          60.3356   86.3326    8.7310 C.ar    1  UNL1       -0.0003
     37 C          59.7554   87.1989    7.6525 C.ar    1  UNL1       -0.0000
     38 C          59.6447   88.6804    7.8589 C.ar    1  UNL1       -0.0003
     39 C          60.1141   89.2958    9.1438 C.ar    1  UNL1       -0.0042
@<TRIPOS>BOND
     1    22    23    1
     2    23    24    1
     3    23    25    1
     4    23    21    1
     5    21    17    1
     6    17    18    2
     7    17    19   am
     8    19    16    1
     9    16    15    1
    10    15    14    1
    11    14     1    1
    12     1    33    1
    13    33    34    1
    14    34    35   ar
    15    35    36   ar
    16    36    37   ar
    17    37    38   ar
    18    38    39   ar
    19     1     2    1
    20     2     3    2
    21     2     4   am
    22     4     6    1
    23     6     7    1
    24     7     8    1
    25     8     9   ar
    26     9    10   ar
    27    10    11   ar
    28    11    12   ar
    29    12    13   ar
    30    16    26    1
    31    26    27    1
    32    27    28   ar
    33    28    29   ar
    34    29    30   ar
    35    30    31   ar
    36    31    32   ar
    37    39    34   ar
    38    13     8   ar
    39    32    27   ar
    40    19    20    1
    41     4     5    1
@<TRIPOS>MOLECULE
*****
 39 41 0 0 0
SMALL
GASTEIGER

@<TRIPOS>ATOM
      1 C          61.8776   89.2586   10.8575 C.3     1  UNL1        0.1281
      2 C          61.7634   87.9381   11.5600 C.2     1  UNL1        0.2325
      3 O          60.4152   87.4134   11.9561 O.2     1  UNL1       -0.2742
      4 N          62.9975   87.1424   11.8663 N.am    1  UNL1       -0.3033
      5 H          63.8824   87.4868   11.6063 H       1  UNL1        0.1495
      6 C          62.8833   85.8220   12.5688 C.3     1  UNL1        0.0941
      7 C          62.6309   84.5718   11.7792 C.3     1  UNL1        0.0492
      8 C          62.6623   83.2356   12.4601 C.ar    1  UNL1       -0.0013
      9 C          62.7899   81.9821   11.6464 C.ar    1  UNL1       -0.0011
     10 C          62.8213   80.6458   12.3272 C.ar    1  UNL1        0.0204
     11 C          62.7250   80.5632   13.8219 C.ar    1  UNL1        0.0989
     12 N          62.5973   81.8169   14.6356 N.ar    1  UNL1       -0.2426
     13 C          62.5660   83.1530   13.9547 C.ar    1  UNL1        0.0946
     14 S          62.5625   90.4101   11.5319 S.3     1  UNL1       -0.1298
     15 C          62.6859   90.4383   13.0266 C.3     1  UNL1        0.0780
     16 C          64.0275   90.6454   13.6647 C.3     1  UNL1        0.0899
     17 C          65.9683   92.3410   13.3353 C.2     1  UNL1        0.4014
     18 O          65.6166   92.9966   14.6378 O.2     1  UNL1       -0.2264
     19 N          65.1738   91.1654   12.8487 N.am    1  UNL1       -0.2711
     20 H          65.4047   90.7351   11.9938 H       1  UNL1        0.1527
     21 O          67.1146   92.8610   12.5194 O.3     1  UNL1       -0.4419
     22 C          67.6475   92.2279   10.5661 C.3     1  UNL1        0.0437
     23 C          66.8735   93.3809   11.1332 C.3     1  UNL1        0.1378
     24 C          66.0995   94.5338   11.7002 C.3     1  UNL1        0.0437
     25 C          66.6324   93.9008    9.7470 C.3     1  UNL1        0.0437
     26 C          64.2229   90.3326   15.1186 C.3     1  UNL1        0.0469
     27 C          63.9419   88.9519   15.6330 C.ar    1  UNL1       -0.0205
     28 C          63.0713   88.7640   16.8400 C.ar    1  UNL1       -0.0042
     29 C          62.7903   87.3833   17.3544 C.ar    1  UNL1       -0.0003
     30 C          63.3798   86.1905   16.6619 C.ar    1  UNL1       -0.0000
     31 C          64.2503   86.3784   15.4549 C.ar    1  UNL1       -0.0003
     32 C          64.5314   87.7591   14.9404 C.ar    1  UNL1       -0.0042
     33 C          61.3068   89.4275    9.4807 C.3     1  UNL1        0.0463
     34 C          60.7923   88.2347    8.7306 C.ar    1  UNL1       -0.0208
     35 C          59.4406   88.2823    8.0820 C.ar    1  UNL1       -0.0042
     36 C          58.9262   87.0896    7.3319 C.ar    1  UNL1       -0.0003
     37 C          59.7635   85.8492    7.2304 C.ar    1  UNL1       -0.0000
     38 C          61.1152   85.8015    7.8789 C.ar    1  UNL1       -0.0003
     39 C          61.6296   86.9943    8.6290 C.ar    1  UNL1       -0.0042
@<TRIPOS>BOND
     1    22    23    1
     2    23    24    1
     3    23    25    1
     4    23    21    1
     5    21    17    1
     6    17    18    2
     7    17    19   am
     8    19    16    1
     9    16    15    1
    10    15    14    1
    11    14     1    1
    12     1    33    1
    13    33    34    1
    14    34    35   ar
    15    35    36   ar
    16    36    37   ar
    17    37    38   ar
    18    38    39   ar
    19     1     2    1
    20     2     3    2
    21     2     4   am
    22     4     6    1
    23     6     7    1
    24     7     8    1
    25     8     9   ar
    26     9    10   ar
    27    10    11   ar
    28    11    12   ar
    29    12    13   ar
    30    16    26    1
    31    26    27    1
    32    27    28   ar
    33    28    29   ar
    34    29    30   ar
    35    30    31   ar
    36    31    32   ar
    37    39    34   ar
    38    13     8   ar
    39    32    27   ar
    40    19    20    1
    41     4     5    1
@<TRIPOS>MOLECULE
*****
 39 41 0 0 0
SMALL
GASTEIGER

@<TRIPOS>ATOM
      1 C          61.5339   87.6763   10.7514 C.3     1  UNL1        0.1281
      2 C          62.3338   88.9170   11.0179 C.2     1  UNL1        0.2325
      3 O          62.5618   89.9127    9.9195 O.2     1  UNL1       -0.2742
      4 N          62.9055   89.1620   12.3829 N.am    1  UNL1       -0.3033
      5 H          62.7558   88.5085   13.1038 H       1  UNL1        0.1495
      6 C          63.7052   90.4026   12.6494 C.3     1  UNL1        0.0941
      7 C          64.0257   90.7999   14.0599 C.3     1  UNL1        0.0492
      8 C          65.2536   91.6110   14.3501 C.ar    1  UNL1       -0.0013
      9 C          65.5950   91.9749   15.7646 C.ar    1  UNL1       -0.0011
     10 C          66.8230   92.7861   16.0549 C.ar    1  UNL1        0.0204
     11 C          67.7094   93.2334   14.9306 C.ar    1  UNL1        0.0989
     12 N          67.3679   92.8695   13.5159 N.ar    1  UNL1       -0.2426
     13 C          66.1400   92.0584   13.2258 C.ar    1  UNL1        0.0946
     14 S          61.4783   86.5847   11.7787 S.3     1  UNL1       -0.1298
     15 C          62.2064   85.2946   11.5425 C.3     1  UNL1        0.0780
     16 C          63.0339   84.6891   12.6373 C.3     1  UNL1        0.0899
     17 C          64.0419   85.1841   14.9801 C.2     1  UNL1        0.4014
     18 O          65.3905   84.7432   14.4930 O.2     1  UNL1       -0.2264
     19 N          62.8637   85.1570   14.0523 N.am    1  UNL1       -0.2711
     20 H          61.9786   85.4463   14.3720 H       1  UNL1        0.1527
     21 O          63.8718   85.6519   16.3951 O.3     1  UNL1       -0.4419
     22 C          64.1472   87.5278   15.4437 C.3     1  UNL1        0.0437
     23 C          63.4261   87.0571   16.6720 C.3     1  UNL1        0.1378
     24 C          62.7051   86.5865   17.9002 C.3     1  UNL1        0.0437
     25 C          62.9804   88.4624   16.9488 C.3     1  UNL1        0.0437
     26 C          64.0316   83.6158   12.3171 C.3     1  UNL1        0.0469
     27 C          63.5615   82.2347   11.9686 C.ar    1  UNL1       -0.0205
     28 C          63.5867   81.7716   10.5420 C.ar    1  UNL1       -0.0042
     29 C          63.1166   80.3905   10.1935 C.ar    1  UNL1       -0.0003
     30 C          62.6213   79.4725   11.2714 C.ar    1  UNL1       -0.0000
     31 C          62.5961   79.9356   12.6979 C.ar    1  UNL1       -0.0003
     32 C          63.0662   81.3167   13.0465 C.ar    1  UNL1       -0.0042
     33 C          60.7898   87.5272    9.4576 C.3     1  UNL1        0.0463
     34 C          61.2026   86.4745    8.4719 C.ar    1  UNL1       -0.0208
     35 C          62.6244   85.9980    8.4349 C.ar    1  UNL1       -0.0042
     36 C          63.0371   84.9454    7.4492 C.ar    1  UNL1       -0.0003
     37 C          62.0281   84.3693    6.5005 C.ar    1  UNL1       -0.0000
     38 C          60.6063   84.8458    6.5376 C.ar    1  UNL1       -0.0003
     39 C          60.1936   85.8984    7.5232 C.ar    1  UNL1       -0.0042
@<TRIPOS>BOND
     1    22    23    1
     2    23    24    1
     3    23    25    1
     4    23    21    1
     5    21    17    1
     6    17    18    2
     7    17    19   am
     8    19    16    1
     9    16    15    1
    10    15    14    1
    11    14     1    1
    12     1    33    1
    13    33    34    1
    14    34    35   ar
    15    35    36   ar
    16    36    37   ar
    17    37    38   ar
    18    38    39   ar
    19     1     2    1
    20     2     3    2
    21     2     4   am
    22     4     6    1
    23     6     7    1
    24     7     8    1
    25     8     9   ar
    26     9    10   ar
    27    10    11   ar
    28    11    12   ar
    29    12    13   ar
    30    16    26    1
    31    26    27    1
    32    27    28   ar
    33    28    29   ar
    34    29    30   ar
    35    30    31   ar
    36    31    32   ar
    37    39    34   ar
    38    13     8   ar
    39    32    27   ar
    40    19    20    1
    41     4     5    1
@<TRIPOS>MOLECULE
*****
 39 41 0 0 0
SMALL
GASTEIGER

@<TRIPOS>ATOM
      1 C          62.4660   88.0008   11.3809 C.3     1  UNL1        0.1281
      2 C          62.5909   89.2953   12.1284 C.2     1  UNL1        0.2325
      3 O          61.4918   89.7398   13.0473 O.2     1  UNL1       -0.2742
      4 N          63.8149   90.1453   11.9570 N.am    1  UNL1       -0.3033
      5 H          64.5363   89.8536   11.3539 H       1  UNL1        0.1495
      6 C          63.9397   91.4397   12.7045 C.3     1  UNL1        0.0941
      7 C          65.1487   92.3057   12.5080 C.3     1  UNL1        0.0492
      8 C          66.2137   92.3576   13.5630 C.ar    1  UNL1       -0.0013
      9 C          65.8354   92.5503   15.0016 C.ar    1  UNL1       -0.0011
     10 C          66.9004   92.6022   16.0567 C.ar    1  UNL1        0.0204
     11 C          68.3436   92.4612   15.6731 C.ar    1  UNL1        0.0989
     12 N          68.7219   92.2685   14.2343 N.ar    1  UNL1       -0.2426
     13 C          67.6569   92.2166   13.1793 C.ar    1  UNL1        0.0946
     14 S          62.2434   86.7206   12.1301 S.3     1  UNL1       -0.1298
     15 C          63.2517   85.6137   12.0399 C.3     1  UNL1        0.0780
     16 C          63.8705   85.0592   13.2887 C.3     1  UNL1        0.0899
     17 C          62.4180   83.3540   14.6051 C.2     1  UNL1        0.4014
     18 O          61.5424   84.4724   15.0875 O.2     1  UNL1       -0.2264
     19 N          63.5821   83.6474   13.7057 N.am    1  UNL1       -0.2711
     20 H          64.1568   82.9135   13.3891 H       1  UNL1        0.1527
     21 O          62.1296   81.9424   15.0220 O.3     1  UNL1       -0.4419
     22 C          60.6632   80.7380   14.0738 C.3     1  UNL1        0.0437
     23 C          62.1582   80.8394   14.0058 C.3     1  UNL1        0.1378
     24 C          63.6532   80.9408   13.9378 C.3     1  UNL1        0.0437
     25 C          62.1868   79.7365   12.9896 C.3     1  UNL1        0.0437
     26 C          64.7778   85.9164   14.1206 C.3     1  UNL1        0.0469
     27 C          64.1969   86.9112   15.0812 C.ar    1  UNL1       -0.0205
     28 C          64.3008   88.3799   14.7943 C.ar    1  UNL1       -0.0042
     29 C          63.7199   89.3747   15.7550 C.ar    1  UNL1       -0.0003
     30 C          63.0352   88.9009   17.0026 C.ar    1  UNL1       -0.0000
     31 C          62.9313   87.4323   17.2896 C.ar    1  UNL1       -0.0003
     32 C          63.5122   86.4374   16.3289 C.ar    1  UNL1       -0.0042
     33 C          62.5637   87.9866    9.8842 C.3     1  UNL1        0.0463
     34 C          61.3706   87.6067    9.0582 C.ar    1  UNL1       -0.0208
     35 C          61.2512   86.2165    8.5080 C.ar    1  UNL1       -0.0042
     36 C          60.0581   85.8366    7.6820 C.ar    1  UNL1       -0.0003
     37 C          58.9843   86.8471    7.4064 C.ar    1  UNL1       -0.0000
     38 C          59.1037   88.2374    7.9566 C.ar    1  UNL1       -0.0003
     39 C          60.2968   88.6172    8.7825 C.ar    1  UNL1       -0.0042
@<TRIPOS>BOND
     1    22    23    1
     2    23    24    1
     3    23    25    1
     4    23    21    1
     5    21    17    1
     6    17    18    2
     7    17    19   am
     8    19    16    1
     9    16    15    1
    10    15    14    1
    11    14     1    1
    12     1    33    1
    13    33    34    1
    14    34    35   ar
    15    35    36   ar
    16    36    37   ar
    17    37    38   ar
    18    38    39   ar
    19     1     2    1
    20     2     3    2
    21     2     4   am
    22     4     6    1
    23     6     7    1
    24     7     8    1
    25     8     9   ar
    26     9    10   ar
    27    10    11   ar
    28    11    12   ar
    29    12    13   ar
    30    16    26    1
    31    26    27    1
    32    27    28   ar
    33    28    29   ar
    34    29    30   ar
    35    30    31   ar
    36    31    32   ar
    37    39    34   ar
    38    13     8   ar
    39    32    27   ar
    40    19    20    1
    41     4     5    1
