@<TRIPOS>MOLECULE
*****
 37 38 0 0 0
SMALL
GASTEIGER

@<TRIPOS>ATOM
      1 C          63.5998   90.6446   14.1813 C.3     1  UNL1        0.1496
      2 N          61.1080   89.3232   11.3894 N.am    1  UNL1       -0.2567
      3 C          60.1448   90.4698   11.3034 C.3     1  UNL1        0.1168
      4 C          62.2596   89.3814   12.3488 C.2     1  UNL1        0.3046
      5 O          63.2227   88.2347   12.4348 O.2     1  UNL1       -0.2526
      6 N          62.4481   90.5863   13.2220 N.am    1  UNL1       -0.2824
      7 H          61.8159   91.3389   13.1655 H       1  UNL1        0.1514
      8 C          60.9195   88.1182   10.5162 C.3     1  UNL1        0.1413
      9 C          59.4856   89.1944    7.0736 C.ar    1  UNL1        0.0875
     10 N          60.2427   89.5018    8.3315 N.ar    1  UNL1       -0.2453
     11 C          60.2674   88.2601    9.1728 C.ar    1  UNL1        0.0858
     12 C          59.5256   87.1854    8.4348 C.ar    1  UNL1        0.0530
     13 S          59.0424   87.7628    7.1375 S.2     1  UNL1       -0.0705
     14 C          57.8110   90.5584    5.6297 C.3     1  UNL1        0.0069
     15 C          59.2186   90.1507    5.9492 C.3     1  UNL1        0.0465
     16 C          60.3593   90.6993    5.1444 C.3     1  UNL1        0.0069
     17 C          63.4385   90.1246   15.5790 C.2     1  UNL1        0.2404
     18 O          63.4687   91.0734   16.7405 O.2     1  UNL1       -0.2733
     19 N          63.2470   88.6557   15.8153 N.am    1  UNL1       -0.3030
     20 H          63.2271   88.0329   15.0531 H       1  UNL1        0.1495
     21 C          63.0857   88.1357   17.2130 C.3     1  UNL1        0.0912
     22 C          62.8514   86.6726   17.4465 C.3     1  UNL1        0.0426
     23 C          63.3437   85.6658   16.4495 C.3     1  UNL1        0.0945
     24 N          62.3705   84.7586   15.7568 N.am    1  UNL1       -0.2706
     25 C          62.8227   83.4220   15.2477 C.2     1  UNL1        0.4020
     26 O          64.2482   82.9927   15.4314 O.2     1  UNL1       -0.2264
     27 H          61.4350   85.0405   15.6362 H       1  UNL1        0.1527
     28 O          61.8495   82.5149   14.5549 O.3     1  UNL1       -0.4291
     29 C          62.2709   81.7579   13.3304 C.3     1  UNL1        0.2447
     30 C          62.9906   82.4664   12.2213 C.ar    1  UNL1        0.0714
     31 C          64.2267   81.9834   11.5223 C.ar    1  UNL1        0.1053
     32 N          64.6005   83.0009   10.4855 N.ar    1  UNL1       -0.2350
     33 C          63.5954   84.1128   10.5437 C.ar    1  UNL1        0.1343
     34 S          62.6004   83.7825   11.6165 S.2     1  UNL1       -0.0652
     35 C          64.9125   91.2229   13.7431 C.3     1  UNL1        0.0270
     36 C          65.0060   91.9749   12.4486 C.3     1  UNL1        0.0022
     37 C          66.1318   91.0492   14.5993 C.3     1  UNL1        0.0022
@<TRIPOS>BOND
     1    14    15    1
     2    15    16    1
     3    15     9    1
     4     9    10   ar
     5    10    11   ar
     6    11     8    1
     7     8     2    1
     8     2     3    1
     9     2     4   am
    10     4     5    2
    11     4     6   am
    12     1     6    1
    13     1    17    1
    14    17    18    2
    15    17    19   am
    16    19    21    1
    17    21    22    1
    18    22    23    1
    19    23    24    1
    20    24    25   am
    21    25    26    2
    22    25    28    1
    23    28    29    1
    24    29    30    1
    25    30    31   ar
    26    31    32   ar
    27    32    33   ar
    28    33    34   ar
    29     1    35    1
    30    35    36    1
    31    35    37    1
    32    11    12   ar
    33    12    13   ar
    34    13     9   ar
    35    34    30   ar
    36     6     7    1
    37    19    20    1
    38    24    27    1
@<TRIPOS>MOLECULE
*****
 37 38 0 0 0
SMALL
GASTEIGER

@<TRIPOS>ATOM
      1 C          63.5638   90.9558   13.4306 C.3     1  UNL1        0.1496
      2 N          60.4406   89.4682   11.4858 N.am    1  UNL1       -0.2567
      3 C          59.8062   90.7239   10.9656 C.3     1  UNL1        0.1168
      4 C          61.6931   89.5455   12.3074 C.2     1  UNL1        0.3046
      5 O          62.3275   88.2897   12.8276 O.2     1  UNL1       -0.2526
      6 N          62.3112   90.8785   12.6089 N.am    1  UNL1       -0.2824
      7 H          61.8949   91.7026   12.2675 H       1  UNL1        0.1514
      8 C          59.8224   88.1352   11.1843 C.3     1  UNL1        0.1413
      9 C          61.4935   85.9395    8.4544 C.ar    1  UNL1        0.0875
     10 N          61.4635   86.5066    9.8428 N.ar    1  UNL1       -0.2453
     11 C          60.2441   87.3717    9.9639 C.ar    1  UNL1        0.0858
     12 C          59.5205   87.3393    8.6504 C.ar    1  UNL1        0.0530
     13 S          60.2926   86.4541    7.7175 S.2     1  UNL1       -0.0705
     14 C          63.6172   84.4825    8.7960 C.3     1  UNL1        0.0069
     15 C          62.5405   85.0193    7.9003 C.3     1  UNL1        0.0465
     16 C          62.5107   84.6359    6.4505 C.3     1  UNL1        0.0069
     17 C          63.5362   90.5647   14.8785 C.2     1  UNL1        0.2404
     18 O          63.6119   91.6199   15.9420 O.2     1  UNL1       -0.2733
     19 N          63.4329   89.1184   15.2629 N.am    1  UNL1       -0.3030
     20 H          63.3832   88.4259   14.5649 H       1  UNL1        0.1495
     21 C          63.4053   88.7273   16.7107 C.3     1  UNL1        0.0912
     22 C          62.6048   87.5377   17.1511 C.3     1  UNL1        0.0426
     23 C          63.1572   86.1545   16.9728 C.3     1  UNL1        0.0945
     24 N          63.0253   85.4589   15.6504 N.am    1  UNL1       -0.2706
     25 C          64.1184   85.5747   14.6297 C.2     1  UNL1        0.4020
     26 O          65.3433   86.3861   14.9315 O.2     1  UNL1       -0.2264
     27 H          62.2213   84.9264   15.4524 H       1  UNL1        0.1527
     28 O          63.9865   84.8792   13.3073 O.3     1  UNL1       -0.4291
     29 C          62.6989   84.2025   12.9409 C.3     1  UNL1        0.2447
     30 C          62.6013   82.7061   12.9772 C.ar    1  UNL1        0.0714
     31 C          62.9669   81.7714   11.8625 C.ar    1  UNL1        0.1053
     32 N          62.7125   80.3693   12.3309 N.ar    1  UNL1       -0.2350
     33 C          62.1897   80.4375   13.7352 C.ar    1  UNL1        0.1343
     34 S          62.1209   81.8817   14.1347 S.2     1  UNL1       -0.0652
     35 C          64.8438   91.4242   12.8046 C.3     1  UNL1        0.0270
     36 C          64.8645   91.8453   11.3651 C.3     1  UNL1        0.0022
     37 C          66.1032   91.4716   13.6180 C.3     1  UNL1        0.0022
@<TRIPOS>BOND
     1    14    15    1
     2    15    16    1
     3    15     9    1
     4     9    10   ar
     5    10    11   ar
     6    11     8    1
     7     8     2    1
     8     2     3    1
     9     2     4   am
    10     4     5    2
    11     4     6   am
    12     1     6    1
    13     1    17    1
    14    17    18    2
    15    17    19   am
    16    19    21    1
    17    21    22    1
    18    22    23    1
    19    23    24    1
    20    24    25   am
    21    25    26    2
    22    25    28    1
    23    28    29    1
    24    29    30    1
    25    30    31   ar
    26    31    32   ar
    27    32    33   ar
    28    33    34   ar
    29     1    35    1
    30    35    36    1
    31    35    37    1
    32    11    12   ar
    33    12    13   ar
    34    13     9   ar
    35    34    30   ar
    36     6     7    1
    37    19    20    1
    38    24    27    1
@<TRIPOS>MOLECULE
*****
 37 38 0 0 0
SMALL
GASTEIGER

@<TRIPOS>ATOM
      1 C          62.0506   86.6450   10.8946 C.3     1  UNL1        0.1496
      2 N          63.4895   89.8268   12.7802 N.am    1  UNL1       -0.2567
      3 C          64.0110   89.1988   14.0386 C.3     1  UNL1        0.1168
      4 C          62.8360   88.9755   11.7322 C.2     1  UNL1        0.3046
      5 O          62.3145   89.6036   10.4738 O.2     1  UNL1       -0.2526
      6 N          62.7040   87.4963   11.9426 N.am    1  UNL1       -0.2824
      7 H          63.0464   87.0841   12.7685 H       1  UNL1        0.1514
      8 C          63.6214   91.3061   12.5698 C.3     1  UNL1        0.1413
      9 C          66.7810   92.7821   10.8657 C.ar    1  UNL1        0.0875
     10 N          65.3948   92.2142   10.7879 N.ar    1  UNL1       -0.2453
     11 C          64.9463   91.8934   12.1828 C.ar    1  UNL1        0.0858
     12 C          66.0552   92.2630   13.1228 C.ar    1  UNL1        0.0530
     13 S          67.1891   92.8123   12.3088 S.2     1  UNL1       -0.0705
     14 C          68.5030   92.2663    8.9900 C.3     1  UNL1        0.0069
     15 C          67.6129   93.2396    9.7044 C.3     1  UNL1        0.0465
     16 C          67.5547   94.6702    9.2575 C.3     1  UNL1        0.0069
     17 C          60.8744   87.1715   10.1270 C.2     1  UNL1        0.2404
     18 O          59.6838   87.7159   10.8591 O.2     1  UNL1       -0.2733
     19 N          60.8888   87.1536    8.6271 N.am    1  UNL1       -0.3030
     20 H          61.6703   86.7963    8.1465 H       1  UNL1        0.1495
     21 C          59.7126   87.6801    7.8594 C.3     1  UNL1        0.0912
     22 C          59.5931   89.1500    7.5854 C.3     1  UNL1        0.0426
     23 C          59.0122   89.6260    6.2869 C.3     1  UNL1        0.0945
     24 N          59.6385   90.7814    5.5639 N.am    1  UNL1       -0.2706
     25 C          58.7716   91.8306    4.9333 C.2     1  UNL1        0.4020
     26 O          57.2782   91.7244    5.0259 O.2     1  UNL1       -0.2264
     27 H          60.6187   90.8510    5.5032 H       1  UNL1        0.1527
     28 O          59.3980   92.9859    4.2103 O.3     1  UNL1       -0.4291
     29 C          59.7614   92.8555    2.7609 C.3     1  UNL1        0.2447
     30 C          61.1993   92.9233    2.3392 C.ar    1  UNL1        0.0714
     31 C          62.3283   92.1281    2.9249 C.ar    1  UNL1        0.1053
     32 N          63.5875   92.5116    2.2054 N.ar    1  UNL1       -0.2350
     33 C          63.2366   93.5437    1.1751 C.ar    1  UNL1        0.1343
     34 S          61.7607   93.7982    1.2577 S.2     1  UNL1       -0.0652
     35 C          62.5732   85.2672   10.6144 C.3     1  UNL1        0.0270
     36 C          63.1128   84.9318    9.2556 C.3     1  UNL1        0.0022
     37 C          62.5562   84.2249   11.6929 C.3     1  UNL1        0.0022
@<TRIPOS>BOND
     1    14    15    1
     2    15    16    1
     3    15     9    1
     4     9    10   ar
     5    10    11   ar
     6    11     8    1
     7     8     2    1
     8     2     3    1
     9     2     4   am
    10     4     5    2
    11     4     6   am
    12     1     6    1
    13     1    17    1
    14    17    18    2
    15    17    19   am
    16    19    21    1
    17    21    22    1
    18    22    23    1
    19    23    24    1
    20    24    25   am
    21    25    26    2
    22    25    28    1
    23    28    29    1
    24    29    30    1
    25    30    31   ar
    26    31    32   ar
    27    32    33   ar
    28    33    34   ar
    29     1    35    1
    30    35    36    1
    31    35    37    1
    32    11    12   ar
    33    12    13   ar
    34    13     9   ar
    35    34    30   ar
    36     6     7    1
    37    19    20    1
    38    24    27    1
@<TRIPOS>MOLECULE
*****
 37 38 0 0 0
SMALL
GASTEIGER

@<TRIPOS>ATOM
      1 C          61.5426   86.3074    8.9909 C.3     1  UNL1        0.1496
      2 N          63.2689   83.9107   11.6415 N.am    1  UNL1       -0.2567
      3 C          64.2207   83.1548   10.7626 C.3     1  UNL1        0.1168
      4 C          62.3762   84.9616   11.0510 C.2     1  UNL1        0.3046
      5 O          61.4244   85.7175   11.9300 O.2     1  UNL1       -0.2526
      6 N          62.4353   85.2565    9.5815 N.am    1  UNL1       -0.2824
      7 H          63.0600   84.7603    9.0047 H       1  UNL1        0.1514
      8 C          63.2098   83.6158   13.1111 C.3     1  UNL1        0.1413
      9 C          63.5936   86.2849   15.9029 C.ar    1  UNL1        0.0875
     10 N          62.7572   85.3095   15.1289 N.ar    1  UNL1       -0.2453
     11 C          63.6359   84.6574   14.1028 C.ar    1  UNL1        0.0858
     12 C          65.0153   85.2298   14.2426 C.ar    1  UNL1        0.0530
     13 S          64.9891   86.2357   15.3551 S.2     1  UNL1       -0.0705
     14 C          63.1031   88.6477   16.8655 C.3     1  UNL1        0.0069
     15 C          63.1179   87.1565   17.0272 C.3     1  UNL1        0.0465
     16 C          62.6571   86.5370   18.3131 C.3     1  UNL1        0.0069
     17 C          61.4760   87.6707    9.6128 C.2     1  UNL1        0.2404
     18 O          62.7103   88.5192    9.6939 O.2     1  UNL1       -0.2733
     19 N          60.1750   88.1857   10.1536 N.am    1  UNL1       -0.3030
     20 H          59.3649   87.6289   10.1004 H       1  UNL1        0.1495
     21 C          60.1085   89.5491   10.7755 C.3     1  UNL1        0.0912
     22 C          60.3814   89.7192   12.2406 C.3     1  UNL1        0.0426
     23 C          61.7931   89.7037   12.7473 C.3     1  UNL1        0.0945
     24 N          62.7964   90.6762   12.2017 N.am    1  UNL1       -0.2706
     25 C          63.7045   91.4202   13.1355 C.2     1  UNL1        0.4020
     26 O          63.6091   91.1916   14.6150 O.2     1  UNL1       -0.2264
     27 H          62.8590   90.8262   11.2308 H       1  UNL1        0.1527
     28 O          64.7078   92.3927   12.5900 O.3     1  UNL1       -0.4291
     29 C          65.1947   92.2550   11.1779 C.3     1  UNL1        0.2447
     30 C          66.1503   93.2634   10.6124 C.ar    1  UNL1        0.0714
     31 C          67.4389   92.9586    9.9078 C.ar    1  UNL1        0.1053
     32 N          68.0701   94.2605    9.5122 N.ar    1  UNL1       -0.2350
     33 C          67.1716   95.3700    9.9723 C.ar    1  UNL1        0.1343
     34 S          65.9851   94.7538   10.6523 S.2     1  UNL1       -0.0652
     35 C          60.7165   85.9949    7.7786 C.3     1  UNL1        0.0270
     36 C          61.2598   85.0883    6.7142 C.3     1  UNL1        0.0022
     37 C          59.3472   86.5890    7.6305 C.3     1  UNL1        0.0022
@<TRIPOS>BOND
     1    14    15    1
     2    15    16    1
     3    15     9    1
     4     9    10   ar
     5    10    11   ar
     6    11     8    1
     7     8     2    1
     8     2     3    1
     9     2     4   am
    10     4     5    2
    11     4     6   am
    12     1     6    1
    13     1    17    1
    14    17    18    2
    15    17    19   am
    16    19    21    1
    17    21    22    1
    18    22    23    1
    19    23    24    1
    20    24    25   am
    21    25    26    2
    22    25    28    1
    23    28    29    1
    24    29    30    1
    25    30    31   ar
    26    31    32   ar
    27    32    33   ar
    28    33    34   ar
    29     1    35    1
    30    35    36    1
    31    35    37    1
    32    11    12   ar
    33    12    13   ar
    34    13     9   ar
    35    34    30   ar
    36     6     7    1
    37    19    20    1
    38    24    27    1
@<TRIPOS>MOLECULE
*****
 37 38 0 0 0
SMALL
GASTEIGER

@<TRIPOS>ATOM
      1 C          61.5271   86.0432    9.2213 C.3     1  UNL1        0.1496
      2 N          63.2484   83.5899   11.8229 N.am    1  UNL1       -0.2567
      3 C          64.0216   82.6952   10.9001 C.3     1  UNL1        0.1168
      4 C          62.4169   84.7059   11.2633 C.2     1  UNL1        0.3046
      5 O          61.6437   85.6006   12.1862 O.2     1  UNL1       -0.2526
      6 N          62.3586   84.9272    9.7810 N.am    1  UNL1       -0.2824
      7 H          62.8660   84.3400    9.1753 H       1  UNL1        0.1514
      8 C          63.3067   83.3686   13.3054 C.3     1  UNL1        0.1413
      9 C          63.6178   86.2226   15.9175 C.ar    1  UNL1        0.0875
     10 N          62.8183   85.1524   15.2353 N.ar    1  UNL1       -0.2453
     11 C          63.7003   84.4931   14.2167 C.ar    1  UNL1        0.0858
     12 C          65.0449   85.1558   14.2694 C.ar    1  UNL1        0.0530
     13 S          64.9939   86.2247   15.3206 S.2     1  UNL1       -0.0705
     14 C          63.0828   88.6136   16.7817 C.3     1  UNL1        0.0069
     15 C          63.1274   87.1311   17.0057 C.3     1  UNL1        0.0465
     16 C          62.6815   86.5571   18.3178 C.3     1  UNL1        0.0069
     17 C          61.3828   87.3264    9.9846 C.2     1  UNL1        0.2404
     18 O          62.5158   88.3088   10.0212 O.2     1  UNL1       -0.2733
     19 N          60.1055   87.6273   10.7113 N.am    1  UNL1       -0.3030
     20 H          59.3619   86.9826   10.6873 H       1  UNL1        0.1495
     21 C          59.9612   88.9105   11.4745 C.3     1  UNL1        0.0912
     22 C          60.3535   90.2104   10.8371 C.3     1  UNL1        0.0426
     23 C          61.6719   90.8424   11.1725 C.3     1  UNL1        0.0945
     24 N          62.4278   90.3993   12.3899 N.am    1  UNL1       -0.2706
     25 C          63.8341   90.8715   12.6128 C.2     1  UNL1        0.4020
     26 O          64.4843   91.7868   11.6180 O.2     1  UNL1       -0.2264
     27 H          62.0010   89.7986   13.0428 H       1  UNL1        0.1527
     28 O          64.5900   90.4284   13.8302 O.3     1  UNL1       -0.4291
     29 C          65.0251   91.4374   14.8513 C.3     1  UNL1        0.2447
     30 C          66.4307   91.9609   14.8369 C.ar    1  UNL1        0.0714
     31 C          67.3904   91.8787   13.6870 C.ar    1  UNL1        0.1053
     32 N          68.6762   92.5255   14.1092 N.ar    1  UNL1       -0.2350
     33 C          68.5112   93.0075   15.5201 C.ar    1  UNL1        0.1343
     34 S          67.1234   92.6586   15.9698 S.2     1  UNL1       -0.0652
     35 C          60.8399   85.8761    7.8986 C.3     1  UNL1        0.0270
     36 C          61.4973   85.0853    6.8065 C.3     1  UNL1        0.0022
     37 C          59.4953   86.4996    7.6678 C.3     1  UNL1        0.0022
@<TRIPOS>BOND
     1    14    15    1
     2    15    16    1
     3    15     9    1
     4     9    10   ar
     5    10    11   ar
     6    11     8    1
     7     8     2    1
     8     2     3    1
     9     2     4   am
    10     4     5    2
    11     4     6   am
    12     1     6    1
    13     1    17    1
    14    17    18    2
    15    17    19   am
    16    19    21    1
    17    21    22    1
    18    22    23    1
    19    23    24    1
    20    24    25   am
    21    25    26    2
    22    25    28    1
    23    28    29    1
    24    29    30    1
    25    30    31   ar
    26    31    32   ar
    27    32    33   ar
    28    33    34   ar
    29     1    35    1
    30    35    36    1
    31    35    37    1
    32    11    12   ar
    33    12    13   ar
    34    13     9   ar
    35    34    30   ar
    36     6     7    1
    37    19    20    1
    38    24    27    1
@<TRIPOS>MOLECULE
*****
 37 38 0 0 0
SMALL
GASTEIGER

@<TRIPOS>ATOM
      1 C          61.2903   86.1782    9.7309 C.3     1  UNL1        0.1496
      2 N          61.3365   89.8234   11.2996 N.am    1  UNL1       -0.2567
      3 C          60.0274   89.8336   12.0317 C.3     1  UNL1        0.1168
      4 C          61.7575   88.6049   10.5327 C.2     1  UNL1        0.3046
      5 O          63.0667   88.5948    9.8006 O.2     1  UNL1       -0.2526
      6 N          60.8694   87.3967   10.4978 N.am    1  UNL1       -0.2824
      7 H          60.0101   87.4034   10.9783 H       1  UNL1        0.1514
      8 C          62.2247   91.0316   11.3344 C.3     1  UNL1        0.1413
      9 C          65.4529   91.7102   13.3798 C.ar    1  UNL1        0.0875
     10 N          64.5833   91.9597   12.1834 N.ar    1  UNL1       -0.2453
     11 C          63.3614   91.0990   12.3108 C.ar    1  UNL1        0.0858
     12 C          63.4759   90.3175   13.5861 C.ar    1  UNL1        0.0530
     13 S          64.7685   90.6953   14.2467 S.2     1  UNL1       -0.0705
     14 C          66.8446   93.5616   14.5570 C.3     1  UNL1        0.0069
     15 C          66.7749   92.3612   13.6602 C.3     1  UNL1        0.0465
     16 C          68.0272   91.8119   13.0438 C.3     1  UNL1        0.0069
     17 C          62.1795   85.1566   10.3755 C.2     1  UNL1        0.2404
     18 O          62.0506   84.8684   11.8419 O.2     1  UNL1       -0.2733
     19 N          63.1976   84.4230    9.5536 N.am    1  UNL1       -0.3030
     20 H          63.2822   84.6121    8.5911 H       1  UNL1        0.1495
     21 C          64.0868   83.4013   10.1982 C.3     1  UNL1        0.0912
     22 C          63.5958   81.9979   10.3964 C.3     1  UNL1        0.0426
     23 C          63.1584   81.5416   11.7567 C.3     1  UNL1        0.0945
     24 N          63.4386   82.3930   12.9594 N.am    1  UNL1       -0.2706
     25 C          62.6379   82.2058   14.2140 C.2     1  UNL1        0.4020
     26 O          61.5570   81.1670   14.2658 O.2     1  UNL1       -0.2264
     27 H          64.1480   83.0748   12.9254 H       1  UNL1        0.1527
     28 O          62.9181   83.0572   15.4167 O.3     1  UNL1       -0.4291
     29 C          63.9412   84.1514   15.3391 C.3     1  UNL1        0.2447
     30 C          63.6265   85.5125   15.8854 C.ar    1  UNL1        0.0714
     31 C          64.0336   86.8222   15.2780 C.ar    1  UNL1        0.1053
     32 N          63.5081   87.9220   16.1522 N.ar    1  UNL1       -0.2350
     33 C          62.7762   87.2920   17.3000 C.ar    1  UNL1        0.1343
     34 S          62.8493   85.8029   17.1351 S.2     1  UNL1       -0.0652
     35 C          60.8220   85.9814    8.3196 C.3     1  UNL1        0.0270
     36 C          59.4724   86.4840    7.9002 C.3     1  UNL1        0.0022
     37 C          61.7034   85.2820    7.3276 C.3     1  UNL1        0.0022
@<TRIPOS>BOND
     1    14    15    1
     2    15    16    1
     3    15     9    1
     4     9    10   ar
     5    10    11   ar
     6    11     8    1
     7     8     2    1
     8     2     3    1
     9     2     4   am
    10     4     5    2
    11     4     6   am
    12     1     6    1
    13     1    17    1
    14    17    18    2
    15    17    19   am
    16    19    21    1
    17    21    22    1
    18    22    23    1
    19    23    24    1
    20    24    25   am
    21    25    26    2
    22    25    28    1
    23    28    29    1
    24    29    30    1
    25    30    31   ar
    26    31    32   ar
    27    32    33   ar
    28    33    34   ar
    29     1    35    1
    30    35    36    1
    31    35    37    1
    32    11    12   ar
    33    12    13   ar
    34    13     9   ar
    35    34    30   ar
    36     6     7    1
    37    19    20    1
    38    24    27    1
@<TRIPOS>MOLECULE
*****
 37 38 0 0 0
SMALL
GASTEIGER

@<TRIPOS>ATOM
      1 C          63.7528   89.7835   14.6861 C.3     1  UNL1        0.1496
      2 N          63.4482   86.2457   16.4585 N.am    1  UNL1       -0.2567
      3 C          62.3346   86.5093   17.4280 C.3     1  UNL1        0.1168
      4 C          63.9210   87.3371   15.5445 C.2     1  UNL1        0.3046
      5 O          65.0347   87.0734   14.5749 O.2     1  UNL1       -0.2526
      6 N          63.2801   88.6920   15.6001 N.am    1  UNL1       -0.2824
      7 H          62.5491   88.8651   16.2365 H       1  UNL1        0.1514
      8 C          64.0892   84.8907   16.4029 C.3     1  UNL1        0.1413
      9 C          62.8170   82.1647   13.9501 C.ar    1  UNL1        0.0875
     10 N          62.8066   82.8218   15.2985 N.ar    1  UNL1       -0.2453
     11 C          63.7813   83.9614   15.2663 C.ar    1  UNL1        0.0858
     12 C          64.3942   84.0087   13.8981 C.ar    1  UNL1        0.0530
     13 S          63.7982   82.8982   13.0846 S.2     1  UNL1       -0.0705
     14 C          62.5436   79.9829   12.5662 C.3     1  UNL1        0.0069
     15 C          61.9912   80.9817   13.5394 C.3     1  UNL1        0.0465
     16 C          60.6129   80.7975   14.1019 C.3     1  UNL1        0.0069
     17 C          63.3240   89.7962   13.2488 C.2     1  UNL1        0.2404
     18 O          63.2061   88.5077   12.4899 O.2     1  UNL1       -0.2733
     19 N          63.0132   91.0974   12.5703 N.am    1  UNL1       -0.3030
     20 H          63.0906   91.9431   13.0684 H       1  UNL1        0.1495
     21 C          62.5844   91.1101   11.1329 C.3     1  UNL1        0.0912
     22 C          63.5294   91.5925   10.0726 C.3     1  UNL1        0.0426
     23 C          64.8539   92.1806   10.4597 C.3     1  UNL1        0.0945
     24 N          64.9213   93.5669   11.0286 N.am    1  UNL1       -0.2706
     25 C          66.1065   93.9847   11.8477 C.2     1  UNL1        0.4020
     26 O          67.2241   93.0161   12.0980 O.2     1  UNL1       -0.2264
     27 H          64.1878   94.2026   10.8643 H       1  UNL1        0.1527
     28 O          66.1739   95.3710   12.4166 O.3     1  UNL1       -0.4291
     29 C          65.9619   96.5586   11.5251 C.3     1  UNL1        0.2447
     30 C          66.2547   96.4565   10.0575 C.ar    1  UNL1        0.0714
     31 C          67.5231   95.9405    9.4453 C.ar    1  UNL1        0.1053
     32 N          67.3828   96.0176    7.9538 N.ar    1  UNL1       -0.2350
     33 C          66.0276   96.5811    7.6443 C.ar    1  UNL1        0.1343
     34 S          65.3304   96.8524    8.9444 S.2     1  UNL1       -0.0652
     35 C          64.6542   90.8621   15.2094 C.3     1  UNL1        0.0270
     36 C          65.9925   91.0953   14.5733 C.3     1  UNL1        0.0022
     37 C          64.2174   91.7076   16.3689 C.3     1  UNL1        0.0022
@<TRIPOS>BOND
     1    14    15    1
     2    15    16    1
     3    15     9    1
     4     9    10   ar
     5    10    11   ar
     6    11     8    1
     7     8     2    1
     8     2     3    1
     9     2     4   am
    10     4     5    2
    11     4     6   am
    12     1     6    1
    13     1    17    1
    14    17    18    2
    15    17    19   am
    16    19    21    1
    17    21    22    1
    18    22    23    1
    19    23    24    1
    20    24    25   am
    21    25    26    2
    22    25    28    1
    23    28    29    1
    24    29    30    1
    25    30    31   ar
    26    31    32   ar
    27    32    33   ar
    28    33    34   ar
    29     1    35    1
    30    35    36    1
    31    35    37    1
    32    11    12   ar
    33    12    13   ar
    34    13     9   ar
    35    34    30   ar
    36     6     7    1
    37    19    20    1
    38    24    27    1
@<TRIPOS>MOLECULE
*****
 37 38 0 0 0
SMALL
GASTEIGER

@<TRIPOS>ATOM
      1 C          62.1825   84.9071   10.6267 C.3     1  UNL1        0.1496
      2 N          62.9813   84.0847   14.4261 N.am    1  UNL1       -0.2567
      3 C          62.2241   82.8021   14.6038 C.3     1  UNL1        0.1168
      4 C          62.9674   84.7864   13.1005 C.2     1  UNL1        0.3046
      5 O          63.7246   86.0690   12.9229 O.2     1  UNL1       -0.2526
      6 N          62.1964   84.2055   11.9525 N.am    1  UNL1       -0.2824
      7 H          61.6995   83.3636   12.0691 H       1  UNL1        0.1514
      8 C          63.7523   84.6656   15.5742 C.3     1  UNL1        0.1413
      9 C          63.6988   88.5330   15.9000 C.ar    1  UNL1        0.0875
     10 N          64.1080   87.2847   15.1759 N.ar    1  UNL1       -0.2453
     11 C          63.5768   86.1093   15.9415 C.ar    1  UNL1        0.0858
     12 C          62.8392   86.6311   17.1389 C.ar    1  UNL1        0.0530
     13 S          62.9146   88.1290   17.1132 S.2     1  UNL1       -0.0705
     14 C          63.6040   91.0897   16.3520 C.3     1  UNL1        0.0069
     15 C          64.0178   89.9384   15.4841 C.3     1  UNL1        0.0465
     16 C          64.7505   90.1926   14.2002 C.3     1  UNL1        0.0069
     17 C          61.1880   85.9996   10.3669 C.2     1  UNL1        0.2404
     18 O          60.4701   86.0630    9.0514 O.2     1  UNL1       -0.2733
     19 N          60.9115   87.0288   11.4226 N.am    1  UNL1       -0.3030
     20 H          61.3827   86.9872   12.2860 H       1  UNL1        0.1495
     21 C          59.9170   88.1212   11.1628 C.3     1  UNL1        0.0912
     22 C          60.1816   89.5106   11.6623 C.3     1  UNL1        0.0426
     23 C          61.4451   89.8096   12.4133 C.3     1  UNL1        0.0945
     24 N          62.3290   90.9392   11.9744 N.am    1  UNL1       -0.2706
     25 C          63.0956   90.8360   10.6892 C.2     1  UNL1        0.4020
     26 O          62.9783   89.6030    9.8430 O.2     1  UNL1       -0.2264
     27 H          62.4060   91.7484   12.5298 H       1  UNL1        0.1527
     28 O          63.9795   91.9656   10.2503 O.3     1  UNL1       -0.4291
     29 C          65.1748   92.3458   11.0729 C.3     1  UNL1        0.2447
     30 C          66.3186   93.0804   10.4389 C.ar    1  UNL1        0.0714
     31 C          67.6434   92.4890   10.0579 C.ar    1  UNL1        0.1053
     32 N          68.4821   93.5784    9.4580 N.ar    1  UNL1       -0.2350
     33 C          67.6757   94.8431    9.4683 C.ar    1  UNL1        0.1343
     34 S          66.3386   94.5354   10.0745 S.2     1  UNL1       -0.0652
     35 C          63.1629   84.5164    9.5610 C.3     1  UNL1        0.0270
     36 C          63.1500   85.2192    8.2359 C.3     1  UNL1        0.0022
     37 C          64.1562   83.4227    9.8202 C.3     1  UNL1        0.0022
@<TRIPOS>BOND
     1    14    15    1
     2    15    16    1
     3    15     9    1
     4     9    10   ar
     5    10    11   ar
     6    11     8    1
     7     8     2    1
     8     2     3    1
     9     2     4   am
    10     4     5    2
    11     4     6   am
    12     1     6    1
    13     1    17    1
    14    17    18    2
    15    17    19   am
    16    19    21    1
    17    21    22    1
    18    22    23    1
    19    23    24    1
    20    24    25   am
    21    25    26    2
    22    25    28    1
    23    28    29    1
    24    29    30    1
    25    30    31   ar
    26    31    32   ar
    27    32    33   ar
    28    33    34   ar
    29     1    35    1
    30    35    36    1
    31    35    37    1
    32    11    12   ar
    33    12    13   ar
    34    13     9   ar
    35    34    30   ar
    36     6     7    1
    37    19    20    1
    38    24    27    1
@<TRIPOS>MOLECULE
*****
 37 38 0 0 0
SMALL
GASTEIGER

@<TRIPOS>ATOM
      1 C          61.7568   87.2891   11.1330 C.3     1  UNL1        0.1496
      2 N          63.7165   90.2039   12.9804 N.am    1  UNL1       -0.2567
      3 C          64.1795   89.4942   14.2181 C.3     1  UNL1        0.1168
      4 C          62.9090   89.4689   11.9521 C.2     1  UNL1        0.3046
      5 O          62.4460   90.1787   10.7144 O.2     1  UNL1       -0.2526
      6 N          62.5643   88.0242   12.1614 N.am    1  UNL1       -0.2824
      7 H          62.8682   87.5584   12.9737 H       1  UNL1        0.1514
      8 C          64.0612   91.6487   12.7711 C.3     1  UNL1        0.1413
      9 C          67.1353   92.7245   10.6597 C.ar    1  UNL1        0.0875
     10 N          65.6685   92.4373   10.7863 N.ar    1  UNL1       -0.2453
     11 C          65.3971   92.0265   12.2031 C.ar    1  UNL1        0.0858
     12 C          66.6962   92.0597   12.9523 C.ar    1  UNL1        0.0530
     13 S          67.7705   92.4910   11.9984 S.2     1  UNL1       -0.0705
     14 C          68.8213   92.2509    8.7406 C.3     1  UNL1        0.0069
     15 C          67.8428   93.1673    9.4134 C.3     1  UNL1        0.0465
     16 C          67.5718   94.5265    8.8398 C.3     1  UNL1        0.0069
     17 C          62.1660   85.9118   10.7023 C.2     1  UNL1        0.2404
     18 O          62.0125   84.7547   11.6445 O.2     1  UNL1       -0.2733
     19 N          62.7288   85.6915    9.3294 N.am    1  UNL1       -0.3030
     20 H          62.8295   86.4509    8.7110 H       1  UNL1        0.1495
     21 C          63.1381   84.3142    8.8987 C.3     1  UNL1        0.0912
     22 C          64.2794   83.6224    9.5834 C.3     1  UNL1        0.0426
     23 C          64.0211   82.4200   10.4422 C.3     1  UNL1        0.0945
     24 N          63.9517   82.5644   11.9336 N.am    1  UNL1       -0.2706
     25 C          63.3164   81.4879   12.7627 C.2     1  UNL1        0.4020
     26 O          62.7504   80.2669   12.1003 O.2     1  UNL1       -0.2264
     27 H          64.3232   83.3659   12.3683 H       1  UNL1        0.1527
     28 O          63.2471   81.6323   14.2541 O.3     1  UNL1       -0.4291
     29 C          62.3819   82.6943   14.8653 C.3     1  UNL1        0.2447
     30 C          62.9730   84.0225   15.2348 C.ar    1  UNL1        0.0714
     31 C          62.3774   85.0191   16.1846 C.ar    1  UNL1        0.1053
     32 N          63.2998   86.1998   16.2562 N.ar    1  UNL1       -0.2350
     33 C          64.4655   85.9329   15.3507 C.ar    1  UNL1        0.1343
     34 S          64.2636   84.5873   14.7195 S.2     1  UNL1       -0.0652
     35 C          60.5401   87.9312   10.5354 C.3     1  UNL1        0.0270
     36 C          59.5099   88.5601   11.4261 C.3     1  UNL1        0.0022
     37 C          60.3534   87.9445    9.0472 C.3     1  UNL1        0.0022
@<TRIPOS>BOND
     1    14    15    1
     2    15    16    1
     3    15     9    1
     4     9    10   ar
     5    10    11   ar
     6    11     8    1
     7     8     2    1
     8     2     3    1
     9     2     4   am
    10     4     5    2
    11     4     6   am
    12     1     6    1
    13     1    17    1
    14    17    18    2
    15    17    19   am
    16    19    21    1
    17    21    22    1
    18    22    23    1
    19    23    24    1
    20    24    25   am
    21    25    26    2
    22    25    28    1
    23    28    29    1
    24    29    30    1
    25    30    31   ar
    26    31    32   ar
    27    32    33   ar
    28    33    34   ar
    29     1    35    1
    30    35    36    1
    31    35    37    1
    32    11    12   ar
    33    12    13   ar
    34    13     9   ar
    35    34    30   ar
    36     6     7    1
    37    19    20    1
    38    24    27    1
