@<TRIPOS>MOLECULE
*****
 27 29 0 0 0
SMALL
GASTEIGER

@<TRIPOS>ATOM
      1 C          63.3350   88.2458   12.5974 C.3     1  UNL1        0.0795
      2 C          63.4068   89.6999   12.2361 C.3     1  UNL1        0.0178
      3 C          62.8919   90.1689   10.9076 C.3     1  UNL1        0.0029
      4 C          62.3052   89.1838    9.9404 C.3     1  UNL1        0.0178
      5 C          62.2334   87.7298   10.3018 C.3     1  UNL1        0.0799
      6 N          62.7483   87.2608   11.6303 N.3     1  UNL1       -0.1583
      7 C          61.6466   86.7447    9.3346 C.3     1  UNL1        0.0237
      8 C          61.5668   85.6572    8.3046 C.3     1  UNL1        0.0019
      9 C          62.9024   86.1077    8.8176 C.3     1  UNL1        0.0019
     10 C          60.1871   87.0396    9.5158 C.3     1  UNL1        0.0861
     11 C          59.3620   87.4891    8.3465 C.2     1  UNL1        0.2194
     12 N          59.6483   88.8065    7.6889 N.am    1  UNL1       -0.3288
     13 O          58.2507   86.6213    7.8349 O.2     1  UNL1       -0.2753
     14 H          60.3777   89.3761    8.0247 H       1  UNL1        0.1449
     15 H          59.1067   89.1016    6.9215 H       1  UNL1        0.1449
     16 S          62.6765   85.8067   11.9916 S.O2    1  UNL1        0.0632
     17 O          61.2217   85.9609   12.3227 O.2     1  UNL1       -0.1528
     18 O          63.9313   85.3555   11.7812 O.2     1  UNL1       -0.1528
     19 C          62.6046   84.3527   12.3529 C.ar    1  UNL1        0.1222
     20 C          62.7975   83.3066   11.2952 C.ar    1  UNL1        0.0208
     21 C          62.7257   81.8526   11.6566 C.ar    1  UNL1        0.0128
     22 C          62.4609   81.4445   13.0755 C.ar    1  UNL1        0.0578
     23 CL         62.3891   79.9905   13.4368 Cl      1  UNL1       -0.0822
     24 C          62.2681   82.4905   14.1332 C.ar    1  UNL1        0.0128
     25 C          62.3399   83.9446   13.7719 C.ar    1  UNL1        0.0208
     26 C          64.2254   88.7759   14.9799 C.3     1  UNL1        0.0015
     27 C          63.8499   87.7769   13.9259 C.3     1  UNL1        0.0177
@<TRIPOS>BOND
     1    26    27    1
     2     1    27    1
     3     1     2    1
     4     2     3    1
     5     3     4    1
     6     4     5    1
     7     5     7    1
     8     7    10    1
     9    10    11    1
    10    11    12   am
    11    11    13    2
    12     7     8    1
    13     8     9    1
    14     5     6    1
    15     6    16    1
    16    16    17    2
    17    16    18    2
    18    16    19    1
    19    19    20   ar
    20    20    21   ar
    21    21    22   ar
    22    22    23    1
    23    22    24   ar
    24    24    25   ar
    25     6     1    1
    26    25    19   ar
    27     9     7    1
    28    12    14    1
    29    12    15    1
@<TRIPOS>MOLECULE
*****
 27 29 0 0 0
SMALL
GASTEIGER

@<TRIPOS>ATOM
      1 C          63.9931   87.1918   13.8642 C.3     1  UNL1        0.0795
      2 C          64.1644   88.6818   13.8867 C.3     1  UNL1        0.0178
      3 C          63.5854   89.5200   12.7857 C.3     1  UNL1        0.0029
      4 C          62.8351   88.8682   11.6622 C.3     1  UNL1        0.0178
      5 C          62.6638   87.3782   11.6398 C.3     1  UNL1        0.0799
      6 N          63.2428   86.5400   12.7408 N.3     1  UNL1       -0.1583
      7 C          61.9135   86.7263   10.5163 C.3     1  UNL1        0.0237
      8 C          61.6505   86.0281    9.2150 C.3     1  UNL1        0.0019
      9 C          63.0564   86.3662    9.6141 C.3     1  UNL1        0.0019
     10 C          60.5099   86.8601   11.0284 C.3     1  UNL1        0.0861
     11 C          59.8654   88.2124   11.1052 C.2     1  UNL1        0.2194
     12 N          59.1396   88.6277   12.3505 N.am    1  UNL1       -0.3288
     13 O          59.9466   89.1495    9.9368 O.2     1  UNL1       -0.2753
     14 H          59.0863   88.0126   13.1174 H       1  UNL1        0.1449
     15 H          58.7166   89.5152   12.4010 H       1  UNL1        0.1449
     16 S          63.0714   85.0499   12.7183 S.O2    1  UNL1        0.0632
     17 O          61.8341   85.1796   13.5562 O.2     1  UNL1       -0.1528
     18 O          64.1146   84.6123   11.9816 O.2     1  UNL1       -0.1528
     19 C          62.9001   83.5599   12.6958 C.ar    1  UNL1        0.1222
     20 C          62.4676   82.8359   13.9363 C.ar    1  UNL1        0.0208
     21 C          62.2962   81.3459   13.9139 C.ar    1  UNL1        0.0128
     22 C          62.5573   80.5799   12.6509 C.ar    1  UNL1        0.0578
     23 CL         62.3859   79.0899   12.6284 Cl      1  UNL1       -0.0822
     24 C          62.9897   81.3039   11.4104 C.ar    1  UNL1        0.0128
     25 C          63.1611   82.7939   11.4328 C.ar    1  UNL1        0.0208
     26 C          63.7821   86.1096   16.2167 C.3     1  UNL1        0.0015
     27 C          64.5721   86.3536   14.9652 C.3     1  UNL1        0.0177
@<TRIPOS>BOND
     1    26    27    1
     2     1    27    1
     3     1     2    1
     4     2     3    1
     5     3     4    1
     6     4     5    1
     7     5     7    1
     8     7    10    1
     9    10    11    1
    10    11    12   am
    11    11    13    2
    12     7     8    1
    13     8     9    1
    14     5     6    1
    15     6    16    1
    16    16    17    2
    17    16    18    2
    18    16    19    1
    19    19    20   ar
    20    20    21   ar
    21    21    22   ar
    22    22    23    1
    23    22    24   ar
    24    24    25   ar
    25     6     1    1
    26    25    19   ar
    27     9     7    1
    28    12    14    1
    29    12    15    1
@<TRIPOS>MOLECULE
*****
 27 29 0 0 0
SMALL
GASTEIGER

@<TRIPOS>ATOM
      1 C          64.1893   91.3114   11.7905 C.3     1  UNL1        0.0795
      2 C          64.6022   92.3858   10.8286 C.3     1  UNL1        0.0178
      3 C          65.6043   93.4211   11.2456 C.3     1  UNL1        0.0029
      4 C          66.1935   93.3821   12.6245 C.3     1  UNL1        0.0178
      5 C          65.7806   92.3077   13.5863 C.3     1  UNL1        0.0799
      6 N          64.7785   91.2724   13.1693 N.3     1  UNL1       -0.1583
      7 C          66.3698   92.2686   14.9652 C.3     1  UNL1        0.0237
      8 C          66.5035   92.4602   16.4469 C.3     1  UNL1        0.0019
      9 C          65.2625   92.9194   15.7402 C.3     1  UNL1        0.0019
     10 C          67.6817   91.6044   14.6691 C.3     1  UNL1        0.0861
     11 C          68.9198   92.4333   14.4958 C.2     1  UNL1        0.2194
     12 N          69.9471   92.0428   13.4750 N.am    1  UNL1       -0.3288
     13 O          69.1306   93.6527   15.3435 O.2     1  UNL1       -0.2753
     14 H          69.8087   91.2424   12.9186 H       1  UNL1        0.1449
     15 H          70.7597   92.5868   13.3613 H       1  UNL1        0.1449
     16 S          64.3656   90.1980   14.1313 S.O2    1  UNL1        0.0632
     17 O          63.1339   90.9811   14.4772 O.2     1  UNL1       -0.1528
     18 O          65.3513   89.2802   14.0386 O.2     1  UNL1       -0.1528
     19 C          63.9527   89.1237   15.0932 C.ar    1  UNL1        0.1222
     20 C          63.2771   89.4897   16.3815 C.ar    1  UNL1        0.0208
     21 C          62.8642   88.4153   17.3434 C.ar    1  UNL1        0.0128
     22 C          63.1268   86.9750   17.0171 C.ar    1  UNL1        0.0578
     23 CL         62.7139   85.9007   17.9790 Cl      1  UNL1       -0.0822
     24 C          63.8024   86.6090   15.7288 C.ar    1  UNL1        0.0128
     25 C          64.2153   87.6834   14.7668 C.ar    1  UNL1        0.0208
     26 C          61.7744   90.6789   11.0706 C.3     1  UNL1        0.0015
     27 C          63.1872   90.2761   11.3735 C.3     1  UNL1        0.0177
@<TRIPOS>BOND
     1    26    27    1
     2     1    27    1
     3     1     2    1
     4     2     3    1
     5     3     4    1
     6     4     5    1
     7     5     7    1
     8     7    10    1
     9    10    11    1
    10    11    12   am
    11    11    13    2
    12     7     8    1
    13     8     9    1
    14     5     6    1
    15     6    16    1
    16    16    17    2
    17    16    18    2
    18    16    19    1
    19    19    20   ar
    20    20    21   ar
    21    21    22   ar
    22    22    23    1
    23    22    24   ar
    24    24    25   ar
    25     6     1    1
    26    25    19   ar
    27     9     7    1
    28    12    14    1
    29    12    15    1
@<TRIPOS>MOLECULE
*****
 27 29 0 0 0
SMALL
GASTEIGER

@<TRIPOS>ATOM
      1 C          63.9853   86.2782   13.6743 C.3     1  UNL1        0.0795
      2 C          64.9009   85.8173   14.7693 C.3     1  UNL1        0.0178
      3 C          65.3273   84.3807   14.8355 C.3     1  UNL1        0.0029
      4 C          64.8382   83.4050   13.8066 C.3     1  UNL1        0.0178
      5 C          63.9226   83.8659   12.7115 C.3     1  UNL1        0.0799
      6 N          63.4962   85.3025   12.6453 N.3     1  UNL1       -0.1583
      7 C          63.4335   82.8902   11.6825 C.3     1  UNL1        0.0237
      8 C          63.3821   82.0773   10.4229 C.3     1  UNL1        0.0019
      9 C          64.5243   83.0201   10.6610 C.3     1  UNL1        0.0019
     10 C          62.1729   82.4215   12.3466 C.3     1  UNL1        0.0861
     11 C          62.2097   81.2517   13.2848 C.2     1  UNL1        0.2194
     12 N          62.0234   81.4654   14.7577 N.am    1  UNL1       -0.3288
     13 O          62.4329   79.8681   12.7501 O.2     1  UNL1       -0.2753
     14 H          61.8769   82.3734   15.1087 H       1  UNL1        0.1449
     15 H          62.0476   80.6976   15.3735 H       1  UNL1        0.1449
     16 S          62.5806   85.7633   11.5502 S.O2    1  UNL1        0.0632
     17 O          61.4169   85.6943   12.4941 O.2     1  UNL1       -0.1528
     18 O          63.3974   85.9240   10.4874 O.2     1  UNL1       -0.1528
     19 C          61.6649   86.2242   10.4551 C.ar    1  UNL1        0.1222
     20 C          61.7497   85.5994    9.0940 C.ar    1  UNL1        0.0208
     21 C          60.8341   86.0602    7.9989 C.ar    1  UNL1        0.0128
     22 C          59.8337   87.1458    8.2648 C.ar    1  UNL1        0.0578
     23 CL         58.9181   87.6067    7.1698 Cl      1  UNL1       -0.0822
     24 C          59.7489   87.7706    9.6259 C.ar    1  UNL1        0.0128
     25 C          60.6646   87.3098   10.7210 C.ar    1  UNL1        0.0208
     26 C          64.2973   88.7535   14.3990 C.3     1  UNL1        0.0015
     27 C          63.5588   87.7147   13.6081 C.3     1  UNL1        0.0177
@<TRIPOS>BOND
     1    26    27    1
     2     1    27    1
     3     1     2    1
     4     2     3    1
     5     3     4    1
     6     4     5    1
     7     5     7    1
     8     7    10    1
     9    10    11    1
    10    11    12   am
    11    11    13    2
    12     7     8    1
    13     8     9    1
    14     5     6    1
    15     6    16    1
    16    16    17    2
    17    16    18    2
    18    16    19    1
    19    19    20   ar
    20    20    21   ar
    21    21    22   ar
    22    22    23    1
    23    22    24   ar
    24    24    25   ar
    25     6     1    1
    26    25    19   ar
    27     9     7    1
    28    12    14    1
    29    12    15    1
@<TRIPOS>MOLECULE
*****
 27 29 0 0 0
SMALL
GASTEIGER

@<TRIPOS>ATOM
      1 C          62.4646   87.0752   11.4664 C.3     1  UNL1        0.0795
      2 C          62.6115   88.5645   11.3648 C.3     1  UNL1        0.0178
      3 C          63.3366   89.3216   12.4376 C.3     1  UNL1        0.0029
      4 C          63.9149   88.5894   13.6121 C.3     1  UNL1        0.0178
      5 C          63.7680   87.1001   13.7137 C.3     1  UNL1        0.0799
      6 N          63.0428   86.3430   12.6409 N.3     1  UNL1       -0.1583
      7 C          64.3462   86.3678   14.8883 C.3     1  UNL1        0.0237
      8 C          65.1603   85.3825   15.6733 C.3     1  UNL1        0.0019
      9 C          65.2263   85.3848   14.1748 C.3     1  UNL1        0.0019
     10 C          63.6669   87.0965   16.0096 C.3     1  UNL1        0.0861
     11 C          62.8193   86.3414   16.9901 C.2     1  UNL1        0.2194
     12 N          61.9105   85.2488   16.5103 N.am    1  UNL1       -0.3288
     13 O          62.8806   86.6788   18.4504 O.2     1  UNL1       -0.2753
     14 H          61.8702   85.0273   15.5519 H       1  UNL1        0.1449
     15 H          61.3542   84.7531   17.1539 H       1  UNL1        0.1449
     16 S          62.8959   84.8537   12.7426 S.O2    1  UNL1        0.0632
     17 O          61.7751   85.0312   13.7235 O.2     1  UNL1       -0.1528
     18 O          63.8427   84.3743   11.9081 O.2     1  UNL1       -0.1528
     19 C          62.7490   83.3644   12.8443 C.ar    1  UNL1        0.1222
     20 C          62.2976   82.7414   14.1321 C.ar    1  UNL1        0.0208
     21 C          62.1507   81.2521   14.2338 C.ar    1  UNL1        0.0128
     22 C          62.4551   80.3857   13.0478 C.ar    1  UNL1        0.0578
     23 CL         62.3082   78.8964   13.1495 Cl      1  UNL1       -0.0822
     24 C          62.9065   81.0086   11.7600 C.ar    1  UNL1        0.0128
     25 C          63.0534   82.4979   11.6583 C.ar    1  UNL1        0.0208
     26 C          62.3827   86.1144    9.0539 C.3     1  UNL1        0.0015
     27 C          61.7394   86.3182   10.3936 C.3     1  UNL1        0.0177
@<TRIPOS>BOND
     1    26    27    1
     2     1    27    1
     3     1     2    1
     4     2     3    1
     5     3     4    1
     6     4     5    1
     7     5     7    1
     8     7    10    1
     9    10    11    1
    10    11    12   am
    11    11    13    2
    12     7     8    1
    13     8     9    1
    14     5     6    1
    15     6    16    1
    16    16    17    2
    17    16    18    2
    18    16    19    1
    19    19    20   ar
    20    20    21   ar
    21    21    22   ar
    22    22    23    1
    23    22    24   ar
    24    24    25   ar
    25     6     1    1
    26    25    19   ar
    27     9     7    1
    28    12    14    1
    29    12    15    1
@<TRIPOS>MOLECULE
*****
 27 29 0 0 0
SMALL
GASTEIGER

@<TRIPOS>ATOM
      1 C          64.6075   91.6157   15.6170 C.3     1  UNL1        0.0795
      2 C          65.4319   92.3310   16.6458 C.3     1  UNL1        0.0178
      3 C          66.6673   93.0746   16.2323 C.3     1  UNL1        0.0029
      4 C          67.0782   93.1029   14.7900 C.3     1  UNL1        0.0178
      5 C          66.2537   92.3875   13.7612 C.3     1  UNL1        0.0799
      6 N          65.0183   91.6440   14.1747 N.3     1  UNL1       -0.1583
      7 C          66.6646   92.4158   12.3188 C.3     1  UNL1        0.0237
      8 C          67.4519   92.1416   11.0718 C.3     1  UNL1        0.0019
      9 C          67.8913   91.5547   12.3805 C.3     1  UNL1        0.0019
     10 C          65.5805   93.2866   11.7563 C.3     1  UNL1        0.0861
     11 C          65.9072   94.6633   11.2582 C.2     1  UNL1        0.2194
     12 N          65.9398   94.9395    9.7843 N.am    1  UNL1       -0.3288
     13 O          66.2012   95.7638   12.2342 O.2     1  UNL1       -0.2753
     14 H          65.7468   94.2173    9.1437 H       1  UNL1        0.1449
     15 H          66.1542   95.8431    9.4574 H       1  UNL1        0.1449
     16 S          64.1939   90.9286   13.1458 S.O2    1  UNL1        0.0632
     17 O          64.8973   89.6452   13.4745 O.2     1  UNL1       -0.1528
     18 O          63.4001   91.8936   12.6347 O.2     1  UNL1       -0.1528
     19 C          63.3695   90.2132   12.1169 C.ar    1  UNL1        0.1222
     20 C          62.8023   90.9694   10.9522 C.ar    1  UNL1        0.0208
     21 C          61.9779   90.2540    9.9233 C.ar    1  UNL1        0.0128
     22 C          61.7206   88.7825   10.0592 C.ar    1  UNL1        0.0578
     23 CL         60.8962   88.0671    9.0303 Cl      1  UNL1       -0.0822
     24 C          62.2878   88.0263   11.2238 C.ar    1  UNL1        0.0128
     25 C          63.1122   88.7417   12.2528 C.ar    1  UNL1        0.0208
     26 C          63.4732   89.4493   16.4946 C.3     1  UNL1        0.0015
     27 C          63.3721   90.8721   16.0305 C.3     1  UNL1        0.0177
@<TRIPOS>BOND
     1    26    27    1
     2     1    27    1
     3     1     2    1
     4     2     3    1
     5     3     4    1
     6     4     5    1
     7     5     7    1
     8     7    10    1
     9    10    11    1
    10    11    12   am
    11    11    13    2
    12     7     8    1
    13     8     9    1
    14     5     6    1
    15     6    16    1
    16    16    17    2
    17    16    18    2
    18    16    19    1
    19    19    20   ar
    20    20    21   ar
    21    21    22   ar
    22    22    23    1
    23    22    24   ar
    24    24    25   ar
    25     6     1    1
    26    25    19   ar
    27     9     7    1
    28    12    14    1
    29    12    15    1
@<TRIPOS>MOLECULE
*****
 27 29 0 0 0
SMALL
GASTEIGER

@<TRIPOS>ATOM
      1 C          63.8807   87.5136   13.6804 C.3     1  UNL1        0.0795
      2 C          64.0444   89.0030   13.6103 C.3     1  UNL1        0.0178
      3 C          63.4614   89.7682   12.4594 C.3     1  UNL1        0.0029
      4 C          62.7147   89.0441   11.3787 C.3     1  UNL1        0.0178
      5 C          62.5510   87.5548   11.4489 C.3     1  UNL1        0.0799
      6 N          63.1340   86.7895   12.5997 N.3     1  UNL1       -0.1583
      7 C          61.8042   86.8306   10.3681 C.3     1  UNL1        0.0237
      8 C          60.6686   86.1946    9.6226 C.3     1  UNL1        0.0019
      9 C          60.4250   86.8329   10.9579 C.3     1  UNL1        0.0019
     10 C          62.9241   86.5767    9.4030 C.3     1  UNL1        0.0861
     11 C          62.9136   85.3431    8.5497 C.2     1  UNL1        0.2194
     12 N          63.6914   84.1322    8.9722 N.am    1  UNL1       -0.3288
     13 O          62.1252   85.3205    7.2737 O.2     1  UNL1       -0.2753
     14 H          64.2088   84.1471    9.8097 H       1  UNL1        0.1449
     15 H          63.6845   83.3226    8.4122 H       1  UNL1        0.1449
     16 S          62.9703   85.3001   12.6698 S.O2    1  UNL1        0.0632
     17 O          61.7886   85.4728   13.5775 O.2     1  UNL1       -0.1528
     18 O          63.9665   84.8250   11.8925 O.2     1  UNL1       -0.1528
     19 C          62.8065   83.8107   12.7400 C.ar    1  UNL1        0.1222
     20 C          63.0574   82.9705   11.5229 C.ar    1  UNL1        0.0208
     21 C          62.8937   81.4811   11.5931 C.ar    1  UNL1        0.0128
     22 C          62.4790   80.8319   12.8802 C.ar    1  UNL1        0.0578
     23 CL         62.3152   79.3426   12.9503 Cl      1  UNL1       -0.0822
     24 C          62.2280   81.6721   14.0971 C.ar    1  UNL1        0.0128
     25 C          62.3918   83.1616   14.0270 C.ar    1  UNL1        0.0208
     26 C          63.6977   86.6252   16.1150 C.3     1  UNL1        0.0015
     27 C          64.4638   86.7484   14.8313 C.3     1  UNL1        0.0177
@<TRIPOS>BOND
     1    26    27    1
     2     1    27    1
     3     1     2    1
     4     2     3    1
     5     3     4    1
     6     4     5    1
     7     5     7    1
     8     7    10    1
     9    10    11    1
    10    11    12   am
    11    11    13    2
    12     7     8    1
    13     8     9    1
    14     5     6    1
    15     6    16    1
    16    16    17    2
    17    16    18    2
    18    16    19    1
    19    19    20   ar
    20    20    21   ar
    21    21    22   ar
    22    22    23    1
    23    22    24   ar
    24    24    25   ar
    25     6     1    1
    26    25    19   ar
    27     9     7    1
    28    12    14    1
    29    12    15    1
@<TRIPOS>MOLECULE
*****
 27 29 0 0 0
SMALL
GASTEIGER

@<TRIPOS>ATOM
      1 C          63.4476   87.0114   13.0657 C.3     1  UNL1        0.0795
      2 C          63.8508   87.7317   14.3181 C.3     1  UNL1        0.0178
      3 C          63.6519   89.2144   14.4277 C.3     1  UNL1        0.0029
      4 C          63.0497   89.9768   13.2848 C.3     1  UNL1        0.0178
      5 C          62.6465   89.2565   12.0324 C.3     1  UNL1        0.0799
      6 N          62.8454   87.7738   11.9229 N.3     1  UNL1       -0.1583
      7 C          62.0443   90.0189   10.8895 C.3     1  UNL1        0.0237
      8 C          61.9209   90.9866    9.7501 C.3     1  UNL1        0.0019
      9 C          63.2138   90.8749   10.5025 C.3     1  UNL1        0.0019
     10 C          60.6658   89.4276   10.8797 C.3     1  UNL1        0.0861
     11 C          59.6247   89.9365   11.8322 C.2     1  UNL1        0.2194
     12 N          59.2628   89.1339   13.0465 N.am    1  UNL1       -0.3288
     13 O          58.9455   91.2480   11.5702 O.2     1  UNL1       -0.2753
     14 H          59.7086   88.2731   13.2185 H       1  UNL1        0.1449
     15 H          58.5795   89.4679   13.6717 H       1  UNL1        0.1449
     16 S          62.4422   87.0535   10.6704 S.O2    1  UNL1        0.0632
     17 O          61.4043   86.2934   11.4417 O.2     1  UNL1       -0.1528
     18 O          63.2608   87.5604    9.7241 O.2     1  UNL1       -0.1528
     19 C          62.0389   86.3332    9.4180 C.ar    1  UNL1        0.1222
     20 C          60.6344   86.4506    8.9044 C.ar    1  UNL1        0.0208
     21 C          60.2311   85.7303    7.6521 C.ar    1  UNL1        0.0128
     22 C          61.2323   84.8926    6.9132 C.ar    1  UNL1        0.0578
     23 CL         60.8290   84.1724    5.6608 Cl      1  UNL1       -0.0822
     24 C          62.6367   84.7753    7.4266 C.ar    1  UNL1        0.0128
     25 C          63.0401   85.4956    8.6791 C.ar    1  UNL1        0.0208
     26 C          63.7120   84.6871   14.1960 C.3     1  UNL1        0.0015
     27 C          63.6465   85.5287   12.9561 C.3     1  UNL1        0.0177
@<TRIPOS>BOND
     1    26    27    1
     2     1    27    1
     3     1     2    1
     4     2     3    1
     5     3     4    1
     6     4     5    1
     7     5     7    1
     8     7    10    1
     9    10    11    1
    10    11    12   am
    11    11    13    2
    12     7     8    1
    13     8     9    1
    14     5     6    1
    15     6    16    1
    16    16    17    2
    17    16    18    2
    18    16    19    1
    19    19    20   ar
    20    20    21   ar
    21    21    22   ar
    22    22    23    1
    23    22    24   ar
    24    24    25   ar
    25     6     1    1
    26    25    19   ar
    27     9     7    1
    28    12    14    1
    29    12    15    1
@<TRIPOS>MOLECULE
*****
 27 29 0 0 0
SMALL
GASTEIGER

@<TRIPOS>ATOM
      1 C          63.7359   95.1850   -1.3826 C.3     1  UNL1        0.0795
      2 C          64.9712   95.6435   -0.6658 C.3     1  UNL1        0.0178
      3 C          65.0637   95.5160    0.8259 C.3     1  UNL1        0.0029
      4 C          63.9210   94.9299    1.6008 C.3     1  UNL1        0.0178
      5 C          62.6857   94.4714    0.8841 C.3     1  UNL1        0.0799
      6 N          62.5931   94.5990   -0.6076 N.3     1  UNL1       -0.1583
      7 C          61.5428   93.8853    1.6590 C.3     1  UNL1        0.0237
      8 C          60.2617   93.8015    2.4348 C.3     1  UNL1        0.0019
      9 C          60.7477   95.1280    1.9305 C.3     1  UNL1        0.0019
     10 C          61.9411   92.4392    1.6566 C.3     1  UNL1        0.0861
     11 C          62.7154   91.8726    2.8096 C.2     1  UNL1        0.2194
     12 N          64.2007   91.6939    2.7000 N.am    1  UNL1       -0.3288
     13 O          62.0045   91.4848    4.0722 O.2     1  UNL1       -0.2753
     14 H          64.6673   91.9484    1.8713 H       1  UNL1        0.1449
     15 H          64.7089   91.3221    3.4568 H       1  UNL1        0.1449
     16 S          61.3578   94.1404   -1.3244 S.O2    1  UNL1        0.0632
     17 O          60.7875   95.5243   -1.2267 O.2     1  UNL1       -0.1528
     18 O          61.5868   92.8320   -1.5657 O.2     1  UNL1       -0.1528
     19 C          60.1224   93.6819   -2.0411 C.ar    1  UNL1        0.1222
     20 C          59.9369   94.0008   -3.4951 C.ar    1  UNL1        0.0208
     21 C          58.7016   93.5424   -4.2118 C.ar    1  UNL1        0.0128
     22 C          57.6517   92.7650   -3.4746 C.ar    1  UNL1        0.0578
     23 CL         56.4164   92.3065   -4.1913 Cl      1  UNL1       -0.0822
     24 C          57.8372   92.4461   -2.0207 C.ar    1  UNL1        0.0128
     25 C          59.0725   92.9046   -1.3039 C.ar    1  UNL1        0.0208
     26 C          64.1796   94.2231   -3.7549 C.3     1  UNL1        0.0015
     27 C          63.6434   95.3125   -2.8743 C.3     1  UNL1        0.0177
@<TRIPOS>BOND
     1    26    27    1
     2     1    27    1
     3     1     2    1
     4     2     3    1
     5     3     4    1
     6     4     5    1
     7     5     7    1
     8     7    10    1
     9    10    11    1
    10    11    12   am
    11    11    13    2
    12     7     8    1
    13     8     9    1
    14     5     6    1
    15     6    16    1
    16    16    17    2
    17    16    18    2
    18    16    19    1
    19    19    20   ar
    20    20    21   ar
    21    21    22   ar
    22    22    23    1
    23    22    24   ar
    24    24    25   ar
    25     6     1    1
    26    25    19   ar
    27     9     7    1
    28    12    14    1
    29    12    15    1
