@<TRIPOS>MOLECULE
*****
 34 37 0 0 0
SMALL
GASTEIGER

@<TRIPOS>ATOM
      1 N          63.0256   90.8615   11.6677 N.am    1  UNL1       -0.2438
      2 C          63.5668   91.4876   10.4167 C.3     1  UNL1        0.1009
      3 C          64.7497   92.4070   10.4892 C.3     1  UNL1        0.0662
      4 C          65.3916   92.7003   11.8128 C.3     1  UNL1        0.1600
      5 O          64.8504   92.0742   13.0640 O.3     1  UNL1       -0.4374
      6 C          63.6674   91.1548   12.9914 C.2     1  UNL1        0.4051
      7 O          63.1263   90.5287   14.2424 O.2     1  UNL1       -0.2262
      8 C          66.2604   93.5281   10.9129 C.ar    1  UNL1        0.0138
      9 C          66.2037   95.0253   10.9852 C.ar    1  UNL1       -0.0010
     10 C          67.0725   95.8531   10.0853 C.ar    1  UNL1       -0.0002
     11 C          67.9981   95.1836    9.1131 C.ar    1  UNL1       -0.0000
     12 C          68.0549   93.6865    9.0408 C.ar    1  UNL1       -0.0002
     13 C          67.1860   92.8586    9.9407 C.ar    1  UNL1       -0.0010
     14 C          60.4631   90.5067   11.4273 C.3     1  UNL1        0.0265
     15 C          61.8426   89.9421   11.5951 C.3     1  UNL1        0.1011
     16 C          62.0392   88.4580   11.6904 C.ar    1  UNL1       -0.0042
     17 C          61.1438   87.5320   10.9218 C.ar    1  UNL1       -0.0027
     18 C          61.3404   86.0480   11.0171 C.ar    1  UNL1       -0.0003
     19 C          62.4324   85.4901   11.8810 C.ar    1  UNL1       -0.0000
     20 C          63.3278   86.4161   12.6496 C.ar    1  UNL1       -0.0003
     21 C          63.1312   87.9001   12.5543 C.ar    1  UNL1       -0.0027
     22 C          62.6289   84.0060   11.9763 C.ar    1  UNL1        0.0001
     23 C          63.0931   83.2325   10.7779 C.ar    1  UNL1        0.0023
     24 C          63.2897   81.7484   10.8732 C.ar    1  UNL1        0.0296
     25 C          63.0221   81.0380   12.1669 C.ar    1  UNL1        0.1401
     26 F          63.2186   79.5540   12.2622 F       1  UNL1       -0.2042
     27 C          62.5579   81.8116   13.3653 C.ar    1  UNL1        0.0296
     28 C          62.3613   83.2956   13.2700 C.ar    1  UNL1        0.0023
     29 C          66.3352   93.2811   12.8239 C.3     1  UNL1        0.0714
     30 C          66.9501   92.3988   13.8696 C.3     1  UNL1        0.0922
     31 C          67.7447   91.6959   12.8091 C.3     1  UNL1        0.0294
     32 C          66.1555   93.1017   14.9299 C.3     1  UNL1        0.0294
     33 O          67.5651   91.5165   14.9151 O.3     1  UNL1       -0.3866
     34 H          68.1821   90.8978   14.4939 H       1  UNL1        0.2102
@<TRIPOS>BOND
     1    15    14    1
     2    15    16    1
     3    16    17   ar
     4    17    18   ar
     5    18    19   ar
     6    19    22    1
     7    22    23   ar
     8    23    24   ar
     9    24    25   ar
    10    25    26    1
    11    25    27   ar
    12    27    28   ar
    13    19    20   ar
    14    20    21   ar
    15    15     1    1
    16     1     2    1
    17     2     3    1
    18     3     4    1
    19     4    29    1
    20    29    30    1
    21    30    31    1
    22    30    32    1
    23    30    33    1
    24     4     8    1
    25     8     9   ar
    26     9    10   ar
    27    10    11   ar
    28    11    12   ar
    29    12    13   ar
    30     4     5    1
    31     5     6    1
    32     6     7    2
    33    21    16   ar
    34     6     1   am
    35    28    22   ar
    36    13     8   ar
    37    33    34    1
@<TRIPOS>MOLECULE
*****
 34 37 0 0 0
SMALL
GASTEIGER

@<TRIPOS>ATOM
      1 N          63.4136   90.4324   11.9858 N.am    1  UNL1       -0.2438
      2 C          64.0738   90.2591   13.3215 C.3     1  UNL1        0.1009
      3 C          65.2542   91.1079   13.6905 C.3     1  UNL1        0.0662
      4 C          65.7745   92.1300   12.7238 C.3     1  UNL1        0.1600
      5 O          65.1143   92.3034   11.3880 O.3     1  UNL1       -0.4374
      6 C          63.9339   91.4546   11.0190 C.2     1  UNL1        0.4051
      7 O          63.2737   91.6279    9.6833 O.2     1  UNL1       -0.2262
      8 C          66.7307   92.3365   13.8609 C.ar    1  UNL1        0.0138
      9 C          66.2178   92.7661   15.2035 C.ar    1  UNL1       -0.0010
     10 C          67.1740   92.9727   16.3406 C.ar    1  UNL1       -0.0002
     11 C          68.6430   92.7496   16.1351 C.ar    1  UNL1       -0.0000
     12 C          69.1559   92.3200   14.7926 C.ar    1  UNL1       -0.0002
     13 C          68.1997   92.1135   13.6554 C.ar    1  UNL1       -0.0010
     14 C          60.9564   90.2295   11.1666 C.3     1  UNL1        0.0265
     15 C          62.2332   89.5836   11.6168 C.3     1  UNL1        0.1011
     16 C          62.3296   88.0889   11.6980 C.ar    1  UNL1       -0.0042
     17 C          61.5219   87.2336   10.7673 C.ar    1  UNL1       -0.0027
     18 C          61.6183   85.7390   10.8485 C.ar    1  UNL1       -0.0003
     19 C          62.5224   85.0996   11.8604 C.ar    1  UNL1       -0.0000
     20 C          63.3300   85.9548   12.7911 C.ar    1  UNL1       -0.0003
     21 C          63.2336   87.4495   12.7099 C.ar    1  UNL1       -0.0027
     22 C          62.6187   83.6048   11.9416 C.ar    1  UNL1        0.0001
     23 C          63.0776   82.8171   10.7504 C.ar    1  UNL1        0.0023
     24 C          63.1739   81.3223   10.8316 C.ar    1  UNL1        0.0296
     25 C          62.8114   80.6154   12.1040 C.ar    1  UNL1        0.1401
     26 F          62.9078   79.1207   12.1852 F       1  UNL1       -0.2042
     27 C          62.3526   81.4033   13.2951 C.ar    1  UNL1        0.0296
     28 C          62.2562   82.8979   13.2139 C.ar    1  UNL1        0.0023
     29 C          66.6269   93.2239   12.1520 C.3     1  UNL1        0.0714
     30 C          66.5092   93.5856   10.7010 C.3     1  UNL1        0.0922
     31 C          67.3487   92.3971   10.3366 C.3     1  UNL1        0.0294
     32 C          65.6698   94.7741   11.0654 C.3     1  UNL1        0.0294
     33 O          66.3915   93.9472    9.2501 O.3     1  UNL1       -0.3866
     34 H          66.8780   93.3006    8.7152 H       1  UNL1        0.2102
@<TRIPOS>BOND
     1    15    14    1
     2    15    16    1
     3    16    17   ar
     4    17    18   ar
     5    18    19   ar
     6    19    22    1
     7    22    23   ar
     8    23    24   ar
     9    24    25   ar
    10    25    26    1
    11    25    27   ar
    12    27    28   ar
    13    19    20   ar
    14    20    21   ar
    15    15     1    1
    16     1     2    1
    17     2     3    1
    18     3     4    1
    19     4    29    1
    20    29    30    1
    21    30    31    1
    22    30    32    1
    23    30    33    1
    24     4     8    1
    25     8     9   ar
    26     9    10   ar
    27    10    11   ar
    28    11    12   ar
    29    12    13   ar
    30     4     5    1
    31     5     6    1
    32     6     7    2
    33    21    16   ar
    34     6     1   am
    35    28    22   ar
    36    13     8   ar
    37    33    34    1
@<TRIPOS>MOLECULE
*****
 34 37 0 0 0
SMALL
GASTEIGER

@<TRIPOS>ATOM
      1 N          62.3637   87.7734   12.1082 N.am    1  UNL1       -0.2438
      2 C          62.0334   86.6886   11.1263 C.3     1  UNL1        0.1009
      3 C          62.5481   85.2968   11.3452 C.3     1  UNL1        0.0662
      4 C          63.3930   84.9897   12.5459 C.3     1  UNL1        0.1600
      5 O          63.7233   86.0746   13.5278 O.3     1  UNL1       -0.4374
      6 C          63.2087   87.4664   13.3090 C.2     1  UNL1        0.4051
      7 O          63.5389   88.5512   14.2908 O.2     1  UNL1       -0.2262
      8 C          63.3511   83.6349   11.9035 C.ar    1  UNL1        0.0138
      9 C          62.5776   82.5230   12.5480 C.ar    1  UNL1       -0.0010
     10 C          62.5357   81.1681   11.9056 C.ar    1  UNL1       -0.0002
     11 C          63.2673   80.9252   10.6189 C.ar    1  UNL1       -0.0000
     12 C          64.0409   82.0371    9.9745 C.ar    1  UNL1       -0.0002
     13 C          64.0828   83.3920   10.6168 C.ar    1  UNL1       -0.0010
     14 C          60.3870   89.4585   12.0516 C.3     1  UNL1        0.0265
     15 C          61.8491   89.1653   11.8893 C.3     1  UNL1        0.1011
     16 C          62.7965   90.2640   11.5081 C.ar    1  UNL1       -0.0042
     17 C          62.8093   90.7895   10.1032 C.ar    1  UNL1       -0.0027
     18 C          63.7567   91.8881    9.7221 C.ar    1  UNL1       -0.0003
     19 C          64.6914   92.4612   10.7457 C.ar    1  UNL1       -0.0000
     20 C          64.6787   91.9356   12.1506 C.ar    1  UNL1       -0.0003
     21 C          63.7313   90.8370   12.5317 C.ar    1  UNL1       -0.0027
     22 C          65.6389   93.5599   10.3645 C.ar    1  UNL1        0.0001
     23 C          66.8921   93.2396    9.6050 C.ar    1  UNL1        0.0023
     24 C          67.8396   94.3383    9.2238 C.ar    1  UNL1        0.0296
     25 C          67.5338   95.7572    9.6021 C.ar    1  UNL1        0.1401
     26 F          68.4812   96.8558    9.2209 F       1  UNL1       -0.2042
     27 C          66.2806   96.0774   10.3617 C.ar    1  UNL1        0.0296
     28 C          65.3332   94.9788   10.7429 C.ar    1  UNL1        0.0023
     29 C          64.2234   84.2122   13.5236 C.3     1  UNL1        0.0714
     30 C          64.3800   84.7035   14.9321 C.3     1  UNL1        0.0922
     31 C          65.7800   85.1444   14.6228 C.3     1  UNL1        0.0294
     32 C          62.9800   84.2627   15.2415 C.3     1  UNL1        0.0294
     33 O          64.5366   85.1949   16.3407 O.3     1  UNL1       -0.3866
     34 H          65.4239   85.5695   16.4556 H       1  UNL1        0.2102
@<TRIPOS>BOND
     1    15    14    1
     2    15    16    1
     3    16    17   ar
     4    17    18   ar
     5    18    19   ar
     6    19    22    1
     7    22    23   ar
     8    23    24   ar
     9    24    25   ar
    10    25    26    1
    11    25    27   ar
    12    27    28   ar
    13    19    20   ar
    14    20    21   ar
    15    15     1    1
    16     1     2    1
    17     2     3    1
    18     3     4    1
    19     4    29    1
    20    29    30    1
    21    30    31    1
    22    30    32    1
    23    30    33    1
    24     4     8    1
    25     8     9   ar
    26     9    10   ar
    27    10    11   ar
    28    11    12   ar
    29    12    13   ar
    30     4     5    1
    31     5     6    1
    32     6     7    2
    33    21    16   ar
    34     6     1   am
    35    28    22   ar
    36    13     8   ar
    37    33    34    1
