@<TRIPOS>MOLECULE
*****
 34 36 0 0 0
SMALL
GASTEIGER

@<TRIPOS>ATOM
      1 C          62.1868   88.5705   10.9729 C.ar    1  UNL1        0.0495
      2 C          62.2436   89.8062   10.1244 C.ar    1  UNL1        0.0455
      3 C          63.1057   90.9616   10.5390 C.ar    1  UNL1        0.1623
      4 F          63.1625   92.1973    9.6905 F       1  UNL1       -0.2026
      5 C          63.9109   90.8813   11.8020 C.ar    1  UNL1        0.1798
      6 C          63.8540   89.6456   12.6504 C.ar    1  UNL1        0.1623
      7 F          64.6593   89.5654   13.9134 F       1  UNL1       -0.2026
      8 C          62.9920   88.4903   12.2358 C.ar    1  UNL1        0.0455
      9 S          64.7730   92.0368   12.2166 S.O2    1  UNL1        0.0791
     10 O          64.1104   92.0483   13.5622 O.2     1  UNL1       -0.1498
     11 O          65.4355   92.0252   10.8709 O.2     1  UNL1       -0.1498
     12 N          65.6350   93.1921   12.6311 N.pl3   1  UNL1       -0.1983
     13 H          65.4738   94.0870   12.2536 H       1  UNL1        0.1753
     14 C          66.7429   92.9841   13.6208 C.ar    1  UNL1        0.1542
     15 C          66.8192   93.5774   14.9964 C.ar    1  UNL1        0.0725
     16 S          68.0924   93.1063   15.6344 S.2     1  UNL1       -0.0625
     17 C          68.8030   92.2219   14.6531 C.ar    1  UNL1        0.1360
     18 N          67.9689   92.1464   13.4086 N.ar    1  UNL1       -0.2203
     19 N          61.3247   87.4151   10.5582 N.pl3   1  UNL1       -0.3289
     20 H          60.7449   87.4928    9.7664 H       1  UNL1        0.1471
     21 C          61.3459   86.1414   11.3502 C.3     1  UNL1        0.1163
     22 C          62.9201   84.2443   12.1706 C.ar    1  UNL1       -0.0063
     23 C          63.9541   83.1974   11.8794 C.ar    1  UNL1       -0.0030
     24 C          64.4478   83.0005   10.4768 C.ar    1  UNL1        0.0020
     25 C          63.9076   83.8505    9.3652 C.ar    1  UNL1        0.0293
     26 C          62.8736   84.8975    9.6564 C.ar    1  UNL1        0.1375
     27 F          62.3334   85.7476    8.5448 F       1  UNL1       -0.2045
     28 C          62.3799   85.0944   11.0590 C.ar    1  UNL1        0.0222
     29 C          62.4264   84.4412   13.5732 C.3     1  UNL1        0.0990
     30 N          63.3830   84.3495   14.7249 N.3     1  UNL1       -0.2691
     31 C          63.9041   83.0127   15.1625 C.3     1  UNL1        0.0899
     32 C          64.8752   86.4734   14.8377 C.3     1  UNL1        0.0173
     33 C          63.8187   85.5947   15.4390 C.3     1  UNL1        0.0579
     34 C          63.1978   85.9610   16.7544 C.3     1  UNL1        0.0173
@<TRIPOS>BOND
     1    32    33    1
     2    33    34    1
     3    33    30    1
     4    30    31    1
     5    30    29    1
     6    29    22    1
     7    22    23   ar
     8    23    24   ar
     9    24    25   ar
    10    25    26   ar
    11    26    27    1
    12    26    28   ar
    13    28    21    1
    14    21    19    1
    15    19     1    1
    16     1     2   ar
    17     2     3   ar
    18     3     4    1
    19     3     5   ar
    20     5     9    1
    21     9    10    2
    22     9    11    2
    23     9    12    1
    24    12    14    1
    25    14    15   ar
    26    15    16   ar
    27    16    17   ar
    28    17    18   ar
    29     5     6   ar
    30     6     7    1
    31     6     8   ar
    32    28    22   ar
    33     8     1   ar
    34    18    14   ar
    35    19    20    1
    36    12    13    1
@<TRIPOS>MOLECULE
*****
 34 36 0 0 0
SMALL
GASTEIGER

@<TRIPOS>ATOM
      1 C          64.0986   88.5067   15.2949 C.ar    1  UNL1        0.0495
      2 C          63.5294   87.9170   16.5512 C.ar    1  UNL1        0.0455
      3 C          63.1477   86.4670   16.5932 C.ar    1  UNL1        0.1623
      4 F          62.5785   85.8774   17.8495 F       1  UNL1       -0.2026
      5 C          63.3353   85.6067   15.3789 C.ar    1  UNL1        0.1798
      6 C          63.9045   86.1964   14.1226 C.ar    1  UNL1        0.1623
      7 F          64.0921   85.3360   12.9082 F       1  UNL1       -0.2026
      8 C          64.2862   87.6464   14.0806 C.ar    1  UNL1        0.0455
      9 S          62.9537   84.1566   15.4208 S.O2    1  UNL1        0.0791
     10 O          64.4015   83.7785   15.5240 O.2     1  UNL1       -0.1498
     11 O          61.5058   84.5348   15.3176 O.2     1  UNL1       -0.1498
     12 N          62.5720   82.7067   15.4627 N.pl3   1  UNL1       -0.1983
     13 H          62.2931   82.2954   16.3126 H       1  UNL1        0.1753
     14 C          62.6152   81.8832   14.2097 C.ar    1  UNL1        0.1542
     15 C          62.6993   82.4130   12.8089 C.ar    1  UNL1        0.0725
     16 S          62.7179   81.2426   11.8709 S.2     1  UNL1       -0.0625
     17 C          62.6453   79.9894   12.6920 C.ar    1  UNL1        0.1360
     18 N          62.5818   80.3853   14.1374 N.ar    1  UNL1       -0.2203
     19 N          64.4803   89.9568   15.2530 N.pl3   1  UNL1       -0.3289
     20 H          65.2973   90.2641   15.7082 H       1  UNL1        0.1471
     21 C          63.6170   90.9386   14.5176 C.3     1  UNL1        0.1163
     22 C          63.1481   90.7790   11.9671 C.ar    1  UNL1       -0.0063
     23 C          63.4855   91.1656   10.5577 C.ar    1  UNL1       -0.0030
     24 C          64.6291   92.0984   10.2891 C.ar    1  UNL1        0.0020
     25 C          65.4353   92.6446   11.4299 C.ar    1  UNL1        0.0293
     26 C          65.0980   92.2580   12.8394 C.ar    1  UNL1        0.1375
     27 F          65.9042   92.8042   13.9804 F       1  UNL1       -0.2045
     28 C          63.9544   91.3252   13.1080 C.ar    1  UNL1        0.0222
     29 C          62.0046   89.8462   12.2357 C.3     1  UNL1        0.0990
     30 N          60.9547   89.6254   11.1874 N.3     1  UNL1       -0.2691
     31 C          59.7627   90.5332   11.1168 C.3     1  UNL1        0.0899
     32 C          61.9681   87.3218   10.5419 C.3     1  UNL1        0.0173
     33 C          61.0969   88.4967   10.2096 C.3     1  UNL1        0.0579
     34 C          60.3677   88.5431    8.8996 C.3     1  UNL1        0.0173
@<TRIPOS>BOND
     1    32    33    1
     2    33    34    1
     3    33    30    1
     4    30    31    1
     5    30    29    1
     6    29    22    1
     7    22    23   ar
     8    23    24   ar
     9    24    25   ar
    10    25    26   ar
    11    26    27    1
    12    26    28   ar
    13    28    21    1
    14    21    19    1
    15    19     1    1
    16     1     2   ar
    17     2     3   ar
    18     3     4    1
    19     3     5   ar
    20     5     9    1
    21     9    10    2
    22     9    11    2
    23     9    12    1
    24    12    14    1
    25    14    15   ar
    26    15    16   ar
    27    16    17   ar
    28    17    18   ar
    29     5     6   ar
    30     6     7    1
    31     6     8   ar
    32    28    22   ar
    33     8     1   ar
    34    18    14   ar
    35    19    20    1
    36    12    13    1
@<TRIPOS>MOLECULE
*****
 34 36 0 0 0
SMALL
GASTEIGER

@<TRIPOS>ATOM
      1 C          62.0892   88.7614   11.1143 C.ar    1  UNL1        0.0495
      2 C          62.1882   89.9758   10.2395 C.ar    1  UNL1        0.0455
      3 C          63.1314   91.0850   10.5999 C.ar    1  UNL1        0.1623
      4 F          63.2303   92.2994    9.7251 F       1  UNL1       -0.2026
      5 C          63.9757   90.9798   11.8352 C.ar    1  UNL1        0.1798
      6 C          63.8767   89.7653   12.7101 C.ar    1  UNL1        0.1623
      7 F          64.7211   89.6602   13.9455 F       1  UNL1       -0.2026
      8 C          62.9335   88.6561   12.3496 C.ar    1  UNL1        0.0455
      9 S          64.9189   92.0890   12.1958 S.O2    1  UNL1        0.0791
     10 O          65.5005   92.0437   10.8139 O.2     1  UNL1       -0.1498
     11 O          64.3374   92.1344   13.5776 O.2     1  UNL1       -0.1498
     12 N          65.8621   93.1982   12.5563 N.pl3   1  UNL1       -0.1983
     13 H          65.7889   94.0718   12.1083 H       1  UNL1        0.1753
     14 C          66.9170   92.9764   13.5994 C.ar    1  UNL1        0.1542
     15 C          66.9836   93.6427   14.9416 C.ar    1  UNL1        0.0725
     16 S          68.1982   93.1275   15.6552 S.2     1  UNL1       -0.0625
     17 C          68.8823   92.1427   14.7540 C.ar    1  UNL1        0.1360
     18 N          68.0905   92.0493   13.4835 N.ar    1  UNL1       -0.2203
     19 N          61.1460   87.6521   10.7538 N.pl3   1  UNL1       -0.3289
     20 H          60.4364   87.8060   10.0890 H       1  UNL1        0.1471
     21 C          61.2839   86.3085   11.4063 C.3     1  UNL1        0.1163
     22 C          62.8754   84.2894   11.7809 C.ar    1  UNL1       -0.0063
     23 C          63.8562   83.2909   11.2415 C.ar    1  UNL1       -0.0030
     24 C          64.2262   83.3129    9.7880 C.ar    1  UNL1        0.0020
     25 C          63.6155   84.3334    8.8740 C.ar    1  UNL1        0.0293
     26 C          62.6348   85.3319    9.4134 C.ar    1  UNL1        0.1375
     27 F          62.0240   86.3525    8.4993 F       1  UNL1       -0.2045
     28 C          62.2647   85.3099   10.8669 C.ar    1  UNL1        0.0222
     29 C          62.5054   84.2675   13.2344 C.3     1  UNL1        0.0990
     30 N          63.0767   83.2152   14.1379 N.3     1  UNL1       -0.2691
     31 C          64.0877   83.5903   15.1806 C.3     1  UNL1        0.0899
     32 C          61.1950   81.4247   14.1956 C.3     1  UNL1        0.0173
     33 C          62.6370   81.7878   13.9988 C.3     1  UNL1        0.0579
     34 C          63.6393   80.7237   13.6629 C.3     1  UNL1        0.0173
@<TRIPOS>BOND
     1    32    33    1
     2    33    34    1
     3    33    30    1
     4    30    31    1
     5    30    29    1
     6    29    22    1
     7    22    23   ar
     8    23    24   ar
     9    24    25   ar
    10    25    26   ar
    11    26    27    1
    12    26    28   ar
    13    28    21    1
    14    21    19    1
    15    19     1    1
    16     1     2   ar
    17     2     3   ar
    18     3     4    1
    19     3     5   ar
    20     5     9    1
    21     9    10    2
    22     9    11    2
    23     9    12    1
    24    12    14    1
    25    14    15   ar
    26    15    16   ar
    27    16    17   ar
    28    17    18   ar
    29     5     6   ar
    30     6     7    1
    31     6     8   ar
    32    28    22   ar
    33     8     1   ar
    34    18    14   ar
    35    19    20    1
    36    12    13    1
@<TRIPOS>MOLECULE
*****
 34 36 0 0 0
SMALL
GASTEIGER

@<TRIPOS>ATOM
      1 C          62.0829   88.7332   11.1201 C.ar    1  UNL1        0.0495
      2 C          62.9264   88.6189   12.3552 C.ar    1  UNL1        0.0455
      3 C          63.8771   89.7206   12.7189 C.ar    1  UNL1        0.1623
      4 F          64.7205   89.6063   13.9540 F       1  UNL1       -0.2026
      5 C          63.9843   90.9367   11.8474 C.ar    1  UNL1        0.1798
      6 C          63.1409   91.0511   10.6122 C.ar    1  UNL1        0.1623
      7 F          63.2481   92.2673    9.7407 F       1  UNL1       -0.2026
      8 C          62.1902   89.9493   10.2486 C.ar    1  UNL1        0.0455
      9 S          64.9351   92.0386   12.2110 S.O2    1  UNL1        0.0791
     10 O          64.3015   92.1379   13.5669 O.2     1  UNL1       -0.1498
     11 O          65.5686   91.9393   10.8550 O.2     1  UNL1       -0.1498
     12 N          65.8858   93.1403   12.5745 N.pl3   1  UNL1       -0.1983
     13 H          65.8611   93.9936   12.0840 H       1  UNL1        0.1753
     14 C          66.8740   92.9421   13.6854 C.ar    1  UNL1        0.1542
     15 C          66.6523   93.2716   15.1319 C.ar    1  UNL1        0.0725
     16 S          67.8987   92.9128   15.8853 S.2     1  UNL1       -0.0625
     17 C          68.8908   92.3615   14.9045 C.ar    1  UNL1        0.1360
     18 N          68.2574   92.3797   13.5449 N.ar    1  UNL1       -0.2203
     19 N          61.1322   87.6314   10.7565 N.pl3   1  UNL1       -0.3289
     20 H          60.4200   87.7936   10.0965 H       1  UNL1        0.1471
     21 C          61.2666   86.2825   11.3986 C.3     1  UNL1        0.1163
     22 C          62.8405   84.2470   11.7589 C.ar    1  UNL1       -0.0063
     23 C          63.8227   83.2522   11.2153 C.ar    1  UNL1       -0.0030
     24 C          64.2132   83.2979    9.7678 C.ar    1  UNL1        0.0020
     25 C          63.6216   84.3385    8.8639 C.ar    1  UNL1        0.0293
     26 C          62.6394   85.3333    9.4075 C.ar    1  UNL1        0.1375
     27 F          62.0477   86.3740    8.5035 F       1  UNL1       -0.2045
     28 C          62.2488   85.2876   10.8550 C.ar    1  UNL1        0.0222
     29 C          62.4499   84.2013   13.2065 C.3     1  UNL1        0.0990
     30 N          63.0570   83.1737   14.1150 N.3     1  UNL1       -0.2691
     31 C          64.0793   83.5832   15.1334 C.3     1  UNL1        0.0899
     32 C          63.6647   80.6810   13.7058 C.3     1  UNL1        0.0173
     33 C          62.6418   81.7364   14.0051 C.3     1  UNL1        0.0579
     34 C          61.2036   81.3547   14.1945 C.3     1  UNL1        0.0173
@<TRIPOS>BOND
     1    32    33    1
     2    33    34    1
     3    33    30    1
     4    30    31    1
     5    30    29    1
     6    29    22    1
     7    22    23   ar
     8    23    24   ar
     9    24    25   ar
    10    25    26   ar
    11    26    27    1
    12    26    28   ar
    13    28    21    1
    14    21    19    1
    15    19     1    1
    16     1     2   ar
    17     2     3   ar
    18     3     4    1
    19     3     5   ar
    20     5     9    1
    21     9    10    2
    22     9    11    2
    23     9    12    1
    24    12    14    1
    25    14    15   ar
    26    15    16   ar
    27    16    17   ar
    28    17    18   ar
    29     5     6   ar
    30     6     7    1
    31     6     8   ar
    32    28    22   ar
    33     8     1   ar
    34    18    14   ar
    35    19    20    1
    36    12    13    1
@<TRIPOS>MOLECULE
*****
 34 36 0 0 0
SMALL
GASTEIGER

@<TRIPOS>ATOM
      1 C          63.5665   89.3233   14.3756 C.ar    1  UNL1        0.0495
      2 C          63.5648   88.7785   15.7732 C.ar    1  UNL1        0.0455
      3 C          63.6115   87.2966   16.0005 C.ar    1  UNL1        0.1623
      4 F          63.6098   86.7518   17.3981 F       1  UNL1       -0.2026
      5 C          63.6600   86.3595   14.8303 C.ar    1  UNL1        0.1798
      6 C          63.6617   86.9043   13.4327 C.ar    1  UNL1        0.1623
      7 F          63.7102   85.9672   12.2625 F       1  UNL1       -0.2026
      8 C          63.6149   88.3862   13.2054 C.ar    1  UNL1        0.0455
      9 S          63.7067   84.8775   15.0576 S.O2    1  UNL1        0.0791
     10 O          62.2375   84.8775   15.3598 O.2     1  UNL1       -0.1498
     11 O          65.1759   84.8776   14.7554 O.2     1  UNL1       -0.1498
     12 N          63.7535   83.3956   15.2848 N.pl3   1  UNL1       -0.1983
     13 H          64.0546   83.0399   16.1520 H       1  UNL1        0.1753
     14 C          63.3415   82.4557   14.1909 C.ar    1  UNL1        0.1542
     15 C          63.3359   82.7605   12.7222 C.ar    1  UNL1        0.0725
     16 S          62.8537   81.5391   11.9971 S.2     1  UNL1       -0.0625
     17 C          62.5614   80.4794   13.0177 C.ar    1  UNL1        0.1360
     18 N          62.8629   81.0459   14.3735 N.ar    1  UNL1       -0.2203
     19 N          63.5197   90.8053   14.1483 N.pl3   1  UNL1       -0.3289
     20 H          62.7541   91.3298   14.4769 H       1  UNL1        0.1471
     21 C          64.6394   91.4881   13.4203 C.3     1  UNL1        0.1163
     22 C          67.1116   92.2869   13.4438 C.ar    1  UNL1       -0.0063
     23 C          68.3137   92.7694   14.2001 C.ar    1  UNL1       -0.0030
     24 C          68.2459   92.9356   15.6893 C.ar    1  UNL1        0.0020
     25 C          66.9760   92.6193   16.4222 C.ar    1  UNL1        0.0293
     26 C          65.7738   92.1369   15.6659 C.ar    1  UNL1        0.1375
     27 F          64.5038   91.8206   16.3988 F       1  UNL1       -0.2045
     28 C          65.8417   91.9706   14.1767 C.ar    1  UNL1        0.0222
     29 C          67.1794   92.1207   11.9545 C.3     1  UNL1        0.0990
     30 N          67.0277   93.3144   11.0590 N.3     1  UNL1       -0.2691
     31 C          66.1789   94.4731   11.4910 C.3     1  UNL1        0.0899
     32 C          68.4569   92.1372    9.2364 C.3     1  UNL1        0.0173
     33 C          67.7249   93.3493    9.7312 C.3     1  UNL1        0.0579
     34 C          67.6901   94.5964    8.8984 C.3     1  UNL1        0.0173
@<TRIPOS>BOND
     1    32    33    1
     2    33    34    1
     3    33    30    1
     4    30    31    1
     5    30    29    1
     6    29    22    1
     7    22    23   ar
     8    23    24   ar
     9    24    25   ar
    10    25    26   ar
    11    26    27    1
    12    26    28   ar
    13    28    21    1
    14    21    19    1
    15    19     1    1
    16     1     2   ar
    17     2     3   ar
    18     3     4    1
    19     3     5   ar
    20     5     9    1
    21     9    10    2
    22     9    11    2
    23     9    12    1
    24    12    14    1
    25    14    15   ar
    26    15    16   ar
    27    16    17   ar
    28    17    18   ar
    29     5     6   ar
    30     6     7    1
    31     6     8   ar
    32    28    22   ar
    33     8     1   ar
    34    18    14   ar
    35    19    20    1
    36    12    13    1
@<TRIPOS>MOLECULE
*****
 34 36 0 0 0
SMALL
GASTEIGER

@<TRIPOS>ATOM
      1 C          61.9239   89.1492   11.3887 C.ar    1  UNL1        0.0495
      2 C          62.8452   89.0234   12.5658 C.ar    1  UNL1        0.0455
      3 C          63.9305   90.0362   12.7804 C.ar    1  UNL1        0.1623
      4 F          64.8517   89.9104   13.9574 F       1  UNL1       -0.2026
      5 C          64.0946   91.1749   11.8179 C.ar    1  UNL1        0.1798
      6 C          63.1734   91.3008   10.6408 C.ar    1  UNL1        0.1623
      7 F          63.3376   92.4396    9.6783 F       1  UNL1       -0.2026
      8 C          62.0881   90.2879   10.4262 C.ar    1  UNL1        0.0455
      9 S          65.1800   92.1879   12.0325 S.O2    1  UNL1        0.0791
     10 O          64.6977   92.4076   13.4357 O.2     1  UNL1       -0.1498
     11 O          65.6624   91.9682   10.6293 O.2     1  UNL1       -0.1498
     12 N          66.2654   93.2007   12.2470 N.pl3   1  UNL1       -0.1983
     13 H          66.7613   93.2182   13.0973 H       1  UNL1        0.1753
     14 C          66.5952   94.1869   11.1660 C.ar    1  UNL1        0.1542
     15 C          65.8818   95.4803   10.9048 C.ar    1  UNL1        0.0725
     16 S          66.5421   96.1457    9.7337 S.2     1  UNL1       -0.0625
     17 C          67.6636   95.2635    9.2712 C.ar    1  UNL1        0.1360
     18 N          67.6964   94.0530   10.1564 N.ar    1  UNL1       -0.2203
     19 N          60.8385   88.1363   11.1741 N.pl3   1  UNL1       -0.3289
     20 H          59.9771   88.4127   10.7859 H       1  UNL1        0.1471
     21 C          61.0657   86.7024   11.5510 C.3     1  UNL1        0.1163
     22 C          62.7019   84.6955   11.3376 C.ar    1  UNL1       -0.0063
     23 C          63.5959   83.8319   10.4980 C.ar    1  UNL1       -0.0030
     24 C          63.7478   84.1116    9.0322 C.ar    1  UNL1        0.0020
     25 C          63.0056   85.2548    8.4059 C.ar    1  UNL1        0.0293
     26 C          62.1116   86.1184    9.2455 C.ar    1  UNL1        0.1375
     27 F          61.3694   87.2617    8.6193 F       1  UNL1       -0.2045
     28 C          61.9598   85.8387   10.7114 C.ar    1  UNL1        0.0222
     29 C          62.5500   84.4158   12.8035 C.3     1  UNL1        0.0990
     30 N          63.1667   83.1855   13.4001 N.3     1  UNL1       -0.2691
     31 C          64.4574   83.2854   14.1577 C.3     1  UNL1        0.0899
     32 C          62.8647   80.9593   12.0952 C.3     1  UNL1        0.0173
     33 C          62.4925   81.8552   13.2392 C.3     1  UNL1        0.0579
     34 C          61.4461   81.4208   14.2223 C.3     1  UNL1        0.0173
@<TRIPOS>BOND
     1    32    33    1
     2    33    34    1
     3    33    30    1
     4    30    31    1
     5    30    29    1
     6    29    22    1
     7    22    23   ar
     8    23    24   ar
     9    24    25   ar
    10    25    26   ar
    11    26    27    1
    12    26    28   ar
    13    28    21    1
    14    21    19    1
    15    19     1    1
    16     1     2   ar
    17     2     3   ar
    18     3     4    1
    19     3     5   ar
    20     5     9    1
    21     9    10    2
    22     9    11    2
    23     9    12    1
    24    12    14    1
    25    14    15   ar
    26    15    16   ar
    27    16    17   ar
    28    17    18   ar
    29     5     6   ar
    30     6     7    1
    31     6     8   ar
    32    28    22   ar
    33     8     1   ar
    34    18    14   ar
    35    19    20    1
    36    12    13    1
@<TRIPOS>MOLECULE
*****
 34 36 0 0 0
SMALL
GASTEIGER

@<TRIPOS>ATOM
      1 C          63.9701   89.6536   13.2419 C.ar    1  UNL1        0.0495
      2 C          65.0699   90.1400   14.1386 C.ar    1  UNL1        0.0455
      3 C          65.8094   91.4009   13.8022 C.ar    1  UNL1        0.1623
      4 F          66.9092   91.8873   14.6988 F       1  UNL1       -0.2026
      5 C          65.4492   92.1753   12.5691 C.ar    1  UNL1        0.1798
      6 C          64.3495   91.6889   11.6725 C.ar    1  UNL1        0.1623
      7 F          63.9893   92.4634   10.4394 F       1  UNL1       -0.2026
      8 C          63.6100   90.4280   12.0089 C.ar    1  UNL1        0.0455
      9 S          66.1888   93.4363   12.2326 S.O2    1  UNL1        0.0791
     10 O          66.6022   92.8432   10.9184 O.2     1  UNL1       -0.1498
     11 O          65.7754   94.0294   13.5469 O.2     1  UNL1       -0.1498
     12 N          66.9283   94.6972   11.8962 N.pl3   1  UNL1       -0.1983
     13 H          67.6045   95.0519   12.5176 H       1  UNL1        0.1753
     14 C          66.6375   95.4176   10.6131 C.ar    1  UNL1        0.1542
     15 C          67.5111   95.4344    9.3939 C.ar    1  UNL1        0.0725
     16 S          66.8356   96.2749    8.3511 S.2     1  UNL1       -0.0625
     17 C          65.5445   96.7776    8.9259 C.ar    1  UNL1        0.1360
     18 N          65.4221   96.2477   10.3239 N.ar    1  UNL1       -0.2203
     19 N          63.2306   88.3926   13.5784 N.pl3   1  UNL1       -0.3289
     20 H          62.6200   88.3712   14.3504 H       1  UNL1        0.1471
     21 C          63.4214   87.1645   12.7387 C.3     1  UNL1        0.1163
     22 C          62.7956   84.6430   12.7115 C.ar    1  UNL1       -0.0063
     23 C          62.8266   83.2899   13.3580 C.ar    1  UNL1       -0.0030
     24 C          63.5143   83.1050   14.6782 C.ar    1  UNL1        0.0020
     25 C          64.1710   84.2732   15.3519 C.ar    1  UNL1        0.0293
     26 C          64.1400   85.6263   14.7054 C.ar    1  UNL1        0.1375
     27 F          64.7968   86.7947   15.3790 F       1  UNL1       -0.2045
     28 C          63.4523   85.8112   13.3852 C.ar    1  UNL1        0.0222
     29 C          62.1079   84.8279   11.3914 C.3     1  UNL1        0.0990
     30 N          62.8736   84.6447   10.1147 N.3     1  UNL1       -0.2691
     31 C          63.9343   83.5882   10.0213 C.3     1  UNL1        0.0899
     32 C          62.7831   84.9920    7.5415 C.3     1  UNL1        0.0173
     33 C          62.5786   85.5180    8.9312 C.3     1  UNL1        0.0579
     34 C          62.0792   86.9172    9.1376 C.3     1  UNL1        0.0173
@<TRIPOS>BOND
     1    32    33    1
     2    33    34    1
     3    33    30    1
     4    30    31    1
     5    30    29    1
     6    29    22    1
     7    22    23   ar
     8    23    24   ar
     9    24    25   ar
    10    25    26   ar
    11    26    27    1
    12    26    28   ar
    13    28    21    1
    14    21    19    1
    15    19     1    1
    16     1     2   ar
    17     2     3   ar
    18     3     4    1
    19     3     5   ar
    20     5     9    1
    21     9    10    2
    22     9    11    2
    23     9    12    1
    24    12    14    1
    25    14    15   ar
    26    15    16   ar
    27    16    17   ar
    28    17    18   ar
    29     5     6   ar
    30     6     7    1
    31     6     8   ar
    32    28    22   ar
    33     8     1   ar
    34    18    14   ar
    35    19    20    1
    36    12    13    1
@<TRIPOS>MOLECULE
*****
 34 36 0 0 0
SMALL
GASTEIGER

@<TRIPOS>ATOM
      1 C          63.8346   89.0681   15.4896 C.ar    1  UNL1        0.0495
      2 C          63.1910   88.4657   16.7032 C.ar    1  UNL1        0.0455
      3 C          62.9604   86.9852   16.7730 C.ar    1  UNL1        0.1623
      4 F          62.3168   86.3828   17.9867 F       1  UNL1       -0.2026
      5 C          63.3734   86.1071   15.6292 C.ar    1  UNL1        0.1798
      6 C          64.0170   86.7095   14.4156 C.ar    1  UNL1        0.1623
      7 F          64.4300   85.8313   13.2718 F       1  UNL1       -0.2026
      8 C          64.2476   88.1900   14.3458 C.ar    1  UNL1        0.0455
      9 S          63.1427   84.6265   15.6990 S.O2    1  UNL1        0.0791
     10 O          61.6842   84.8406   15.4219 O.2     1  UNL1       -0.1498
     11 O          64.6013   84.4125   15.9761 O.2     1  UNL1       -0.1498
     12 N          62.9122   83.1460   15.7688 N.pl3   1  UNL1       -0.1983
     13 H          62.7664   82.7111   16.6399 H       1  UNL1        0.1753
     14 C          62.9038   82.3282   14.5114 C.ar    1  UNL1        0.1542
     15 C          62.0688   81.1080   14.2589 C.ar    1  UNL1        0.0725
     16 S          62.3778   80.6126   12.8771 S.2     1  UNL1       -0.0625
     17 C          63.4039   81.5267   12.2757 C.ar    1  UNL1        0.1360
     18 N          63.7289   82.5870   13.2858 N.ar    1  UNL1       -0.2203
     19 N          64.0652   90.5487   15.4198 N.pl3   1  UNL1       -0.3289
     20 H          63.7105   91.1359   16.1258 H       1  UNL1        0.1471
     21 C          64.8363   91.1344   14.2742 C.3     1  UNL1        0.1163
     22 C          64.9354   91.9070   11.7957 C.ar    1  UNL1       -0.0063
     23 C          64.3092   91.9913   10.4353 C.ar    1  UNL1       -0.0030
     24 C          62.9578   91.3872   10.1929 C.ar    1  UNL1        0.0020
     25 C          62.2325   90.6989   11.3110 C.ar    1  UNL1        0.0293
     26 C          62.8587   90.6147   12.6714 C.ar    1  UNL1        0.1375
     27 F          62.1334   89.9264   13.7896 F       1  UNL1       -0.2045
     28 C          64.2101   91.2187   12.9137 C.ar    1  UNL1        0.0222
     29 C          66.2869   92.5110   12.0380 C.3     1  UNL1        0.0990
     30 N          66.7585   93.6572   11.1931 N.3     1  UNL1       -0.2691
     31 C          66.4231   95.0657   11.5852 C.3     1  UNL1        0.0899
     32 C          68.2402   92.0686    9.7681 C.3     1  UNL1        0.0173
     33 C          67.5655   93.3950    9.9562 C.3     1  UNL1        0.0579
     34 C          67.6979   94.4592    8.9074 C.3     1  UNL1        0.0173
@<TRIPOS>BOND
     1    32    33    1
     2    33    34    1
     3    33    30    1
     4    30    31    1
     5    30    29    1
     6    29    22    1
     7    22    23   ar
     8    23    24   ar
     9    24    25   ar
    10    25    26   ar
    11    26    27    1
    12    26    28   ar
    13    28    21    1
    14    21    19    1
    15    19     1    1
    16     1     2   ar
    17     2     3   ar
    18     3     4    1
    19     3     5   ar
    20     5     9    1
    21     9    10    2
    22     9    11    2
    23     9    12    1
    24    12    14    1
    25    14    15   ar
    26    15    16   ar
    27    16    17   ar
    28    17    18   ar
    29     5     6   ar
    30     6     7    1
    31     6     8   ar
    32    28    22   ar
    33     8     1   ar
    34    18    14   ar
    35    19    20    1
    36    12    13    1
@<TRIPOS>MOLECULE
*****
 34 36 0 0 0
SMALL
GASTEIGER

@<TRIPOS>ATOM
      1 C          63.0707   89.1399   12.4121 C.ar    1  UNL1        0.0495
      2 C          62.9064   90.0836   11.2578 C.ar    1  UNL1        0.0455
      3 C          63.7841   91.2951   11.1487 C.ar    1  UNL1        0.1623
      4 F          63.6198   92.2388    9.9945 F       1  UNL1       -0.2026
      5 C          64.8261   91.5628   12.1940 C.ar    1  UNL1        0.1798
      6 C          64.9904   90.6191   13.3482 C.ar    1  UNL1        0.1623
      7 F          66.0325   90.8869   14.3935 F       1  UNL1       -0.2026
      8 C          64.1127   89.4076   13.4573 C.ar    1  UNL1        0.0455
      9 S          65.7039   92.7743   12.0849 S.O2    1  UNL1        0.0791
     10 O          66.1249   92.3457   10.7106 O.2     1  UNL1       -0.1498
     11 O          65.2829   93.2030   13.4593 O.2     1  UNL1       -0.1498
     12 N          66.5816   93.9858   11.9759 N.pl3   1  UNL1       -0.1983
     13 H          67.2021   94.2114   12.7063 H       1  UNL1        0.1753
     14 C          66.5140   94.8535   10.7543 C.ar    1  UNL1        0.1542
     15 C          67.5267   94.9001    9.6487 C.ar    1  UNL1        0.0725
     16 S          67.0604   95.9024    8.6348 S.2     1  UNL1       -0.0625
     17 C          65.7595   96.4753    9.1137 C.ar    1  UNL1        0.1360
     18 N          65.4218   95.8271   10.4236 N.ar    1  UNL1       -0.2203
     19 N          62.1930   87.9284   12.5211 N.pl3   1  UNL1       -0.3289
     20 H          61.8234   87.6653   13.3949 H       1  UNL1        0.1471
     21 C          61.8783   87.1177   11.2989 C.3     1  UNL1        0.1163
     22 C          62.8634   85.2972    9.7287 C.ar    1  UNL1       -0.0063
     23 C          63.4979   83.9516    9.5375 C.ar    1  UNL1       -0.0030
     24 C          63.7818   83.0806   10.7253 C.ar    1  UNL1        0.0020
     25 C          63.4312   83.5554   12.1043 C.ar    1  UNL1        0.0293
     26 C          62.7967   84.9011   12.2955 C.ar    1  UNL1        0.1375
     27 F          62.4461   85.3759   13.6745 F       1  UNL1       -0.2045
     28 C          62.5128   85.7720   11.1077 C.ar    1  UNL1        0.0222
     29 C          62.5795   86.1681    8.5409 C.3     1  UNL1        0.0990
     30 N          61.2764   86.0377    7.8096 N.3     1  UNL1       -0.2691
     31 C          61.0824   84.9325    6.8141 C.3     1  UNL1        0.0899
     32 C          60.4803   88.3765    8.6135 C.3     1  UNL1        0.0173
     33 C          60.1673   87.0125    8.0737 C.3     1  UNL1        0.0579
     34 C          58.7452   86.6232    7.7979 C.3     1  UNL1        0.0173
@<TRIPOS>BOND
     1    32    33    1
     2    33    34    1
     3    33    30    1
     4    30    31    1
     5    30    29    1
     6    29    22    1
     7    22    23   ar
     8    23    24   ar
     9    24    25   ar
    10    25    26   ar
    11    26    27    1
    12    26    28   ar
    13    28    21    1
    14    21    19    1
    15    19     1    1
    16     1     2   ar
    17     2     3   ar
    18     3     4    1
    19     3     5   ar
    20     5     9    1
    21     9    10    2
    22     9    11    2
    23     9    12    1
    24    12    14    1
    25    14    15   ar
    26    15    16   ar
    27    16    17   ar
    28    17    18   ar
    29     5     6   ar
    30     6     7    1
    31     6     8   ar
    32    28    22   ar
    33     8     1   ar
    34    18    14   ar
    35    19    20    1
    36    12    13    1
