@<TRIPOS>MOLECULE
*****
 33 36 0 0 0
SMALL
GASTEIGER

@<TRIPOS>ATOM
      1 C          60.5310   88.0510    8.8284 C.ar    1  UNL1       -0.0227
      2 C          61.0194   89.3371    9.4265 C.ar    1  UNL1       -0.0050
      3 C          62.0487   89.3137   10.5173 C.ar    1  UNL1        0.0208
      4 C          62.5897   88.0043   11.0101 C.ar    1  UNL1       -0.0007
      5 C          62.1013   86.7183   10.4121 C.ar    1  UNL1       -0.0005
      6 C          61.0720   86.7416    9.3213 C.ar    1  UNL1       -0.0043
      7 C          62.6423   85.4089   10.9049 C.ar    1  UNL1       -0.0001
      8 C          63.3375   84.4794    9.9549 C.ar    1  UNL1        0.0031
      9 C          63.8785   83.1700   10.4477 C.ar    1  UNL1        0.0366
     10 C          63.7242   82.7901   11.8906 C.ar    1  UNL1        0.1360
     11 C          63.0289   83.7197   12.8406 C.ar    1  UNL1        0.0294
     12 C          62.4880   85.0290   12.3478 C.ar    1  UNL1        0.0001
     13 C          63.0264   83.0793   14.1971 C.3     1  UNL1        0.1208
     14 N          62.4342   83.6620   15.4460 N.3     1  UNL1       -0.3157
     15 C          63.7201   81.7540   14.0854 C.3     1  UNL1        0.2253
     16 O          64.1514   81.5753   12.6599 O.3     1  UNL1       -0.4739
     17 H          62.0261   84.5729   15.2358 H       1  UNL1        0.1192
     18 H          63.1644   83.7708   16.1498 H       1  UNL1        0.1192
     19 C          58.6298   86.8764    7.5033 C.3     1  UNL1        0.0047
     20 C          59.5017   88.0743    7.7376 C.3     1  UNL1        0.0223
     21 C          59.3442   89.2956    6.8811 C.3     1  UNL1        0.0047
     22 C          62.5371   90.5997   11.1153 C.3     1  UNL1        0.2320
     23 O          62.9920   90.6373   12.5442 O.3     1  UNL1       -0.4710
     24 C          64.3488   91.1782   12.8853 C.ar    1  UNL1        0.1354
     25 C          64.9924   92.2028   11.9987 C.ar    1  UNL1        0.0366
     26 C          66.3493   92.7437   12.3400 C.ar    1  UNL1        0.0031
     27 C          67.0625   92.2600   13.5677 C.ar    1  UNL1       -0.0001
     28 C          66.4189   91.2354   14.4543 C.ar    1  UNL1       -0.0009
     29 C          65.0620   90.6946   14.1131 C.ar    1  UNL1        0.0174
     30 C          64.4184   89.6700   14.9997 C.3     1  UNL1        0.0710
     31 C          63.3515   90.0820   15.9702 C.2     1  UNL1        0.0548
     32 O          62.1121   89.2505   16.1199 O.co2   1  UNL1       -0.5488
     33 O          63.5241   91.3255   16.7912 O.co2   1  UNL1       -0.5488
@<TRIPOS>UNITY_ATOM_ATTR
32 1
charge -1
@<TRIPOS>BOND
     1    19    20    1
     2    20    21    1
     3    20     1    1
     4     1     2   ar
     5     2     3   ar
     6     3    22    1
     7    22    23    1
     8    23    24    1
     9    24    25   ar
    10    25    26   ar
    11    26    27   ar
    12    27    28   ar
    13    28    29   ar
    14    29    30    1
    15    30    31    1
    16    31    32   ar
    17    31    33   ar
    18     3     4   ar
    19     4     5   ar
    20     5     7    1
    21     7     8   ar
    22     8     9   ar
    23     9    10   ar
    24    10    11   ar
    25    11    12   ar
    26    11    13    1
    27    13    14    1
    28    13    15    1
    29    15    16    1
    30     5     6   ar
    31     6     1   ar
    32    29    24   ar
    33    12     7   ar
    34    16    10    1
    35    14    17    1
    36    14    18    1
@<TRIPOS>MOLECULE
*****
 33 36 0 0 0
SMALL
GASTEIGER

@<TRIPOS>ATOM
      1 C          60.5151   87.9934    8.9402 C.ar    1  UNL1       -0.0227
      2 C          60.8949   89.2509    9.6645 C.ar    1  UNL1       -0.0050
      3 C          61.8550   89.1926   10.8156 C.ar    1  UNL1        0.0208
      4 C          62.4352   87.8767   11.2424 C.ar    1  UNL1       -0.0007
      5 C          62.0553   86.6194   10.5181 C.ar    1  UNL1       -0.0005
      6 C          61.0953   86.6777    9.3670 C.ar    1  UNL1       -0.0043
      7 C          62.6355   85.3035   10.9448 C.ar    1  UNL1       -0.0001
      8 C          63.3822   84.4573    9.9568 C.ar    1  UNL1        0.0031
      9 C          63.9623   83.1415   10.3835 C.ar    1  UNL1        0.0366
     10 C          63.7958   82.6720   11.7984 C.ar    1  UNL1        0.1360
     11 C          63.0491   83.5183   12.7865 C.ar    1  UNL1        0.0294
     12 C          62.4690   84.8340   12.3597 C.ar    1  UNL1        0.0001
     13 C          63.0455   82.7995   14.1030 C.3     1  UNL1        0.1208
     14 N          62.4092   83.2858   15.3713 N.3     1  UNL1       -0.3157
     15 C          63.7900   81.5089   13.9286 C.3     1  UNL1        0.2253
     16 O          64.2537   81.4302   12.5043 O.3     1  UNL1       -0.4739
     17 H          61.9714   84.1922   15.2062 H       1  UNL1        0.1192
     18 H          63.1218   83.3792   16.0951 H       1  UNL1        0.1192
     19 C          59.4522   89.2981    6.9608 C.3     1  UNL1        0.0047
     20 C          59.5551   88.0518    7.7892 C.3     1  UNL1        0.0223
     21 C          58.6979   86.8639    7.4665 C.3     1  UNL1        0.0047
     22 C          62.2348   90.4500   11.5399 C.3     1  UNL1        0.2320
     23 O          63.5562   91.1042   11.2644 O.3     1  UNL1       -0.4710
     24 C          64.4800   91.4355   12.3988 C.ar    1  UNL1        0.1354
     25 C          64.2511   90.8327   13.7531 C.ar    1  UNL1        0.0366
     26 C          65.1749   91.1641   14.8875 C.ar    1  UNL1        0.0031
     27 C          66.3276   92.0983   14.6675 C.ar    1  UNL1       -0.0001
     28 C          66.5566   92.7012   13.3132 C.ar    1  UNL1       -0.0009
     29 C          65.6328   92.3698   12.1788 C.ar    1  UNL1        0.0174
     30 C          65.8618   92.9726   10.8245 C.3     1  UNL1        0.0710
     31 C          67.2505   93.3386   10.3915 C.2     1  UNL1        0.0548
     32 O          67.5721   94.7567   10.0236 O.co2   1  UNL1       -0.5488
     33 O          68.3176   92.2864   10.3264 O.co2   1  UNL1       -0.5488
@<TRIPOS>UNITY_ATOM_ATTR
32 1
charge -1
@<TRIPOS>BOND
     1    19    20    1
     2    20    21    1
     3    20     1    1
     4     1     2   ar
     5     2     3   ar
     6     3    22    1
     7    22    23    1
     8    23    24    1
     9    24    25   ar
    10    25    26   ar
    11    26    27   ar
    12    27    28   ar
    13    28    29   ar
    14    29    30    1
    15    30    31    1
    16    31    32   ar
    17    31    33   ar
    18     3     4   ar
    19     4     5   ar
    20     5     7    1
    21     7     8   ar
    22     8     9   ar
    23     9    10   ar
    24    10    11   ar
    25    11    12   ar
    26    11    13    1
    27    13    14    1
    28    13    15    1
    29    15    16    1
    30     5     6   ar
    31     6     1   ar
    32    29    24   ar
    33    12     7   ar
    34    16    10    1
    35    14    17    1
    36    14    18    1
@<TRIPOS>MOLECULE
*****
 33 36 0 0 0
SMALL
GASTEIGER

@<TRIPOS>ATOM
      1 C          60.9183   87.7560    9.2622 C.ar    1  UNL1       -0.0227
      2 C          61.3291   89.1674    9.5612 C.ar    1  UNL1       -0.0050
      3 C          62.2317   89.4554   10.7241 C.ar    1  UNL1        0.0208
      4 C          62.7235   88.3321   11.5880 C.ar    1  UNL1       -0.0007
      5 C          62.3127   86.9208   11.2890 C.ar    1  UNL1       -0.0005
      6 C          61.4101   86.6327   10.1262 C.ar    1  UNL1       -0.0043
      7 C          62.8045   85.7974   12.1530 C.ar    1  UNL1       -0.0001
      8 C          63.3841   86.0897   13.5052 C.ar    1  UNL1        0.0031
      9 C          63.8758   84.9664   14.3691 C.ar    1  UNL1        0.0366
     10 C          63.7879   83.5508   13.8807 C.ar    1  UNL1        0.1360
     11 C          63.2083   83.2586   12.5285 C.ar    1  UNL1        0.0294
     12 C          62.7166   84.3819   11.6646 C.ar    1  UNL1        0.0001
     13 C          63.2510   81.7742   12.3169 C.3     1  UNL1        0.1208
     14 N          62.7718   81.0433   11.0978 N.3     1  UNL1       -0.3157
     15 C          63.8570   81.1490   13.5383 C.3     1  UNL1        0.2253
     16 O          64.1889   82.2470   14.5049 O.3     1  UNL1       -0.4739
     17 H          62.4062   81.7135   10.4214 H       1  UNL1        0.1192
     18 H          62.0345   80.3895   11.3612 H       1  UNL1        0.1192
     19 C          59.2724   88.5868    7.4317 C.3     1  UNL1        0.0047
     20 C          60.0157   87.4679    8.0993 C.3     1  UNL1        0.0223
     21 C          59.8564   86.0611    7.6040 C.3     1  UNL1        0.0047
     22 C          62.6425   90.8667   11.0230 C.3     1  UNL1        0.2320
     23 O          64.0957   91.2383   11.0347 O.3     1  UNL1       -0.4710
     24 C          64.7557   91.6448   12.3189 C.ar    1  UNL1        0.1354
     25 C          64.5291   90.8418   13.5654 C.ar    1  UNL1        0.0366
     26 C          65.1891   91.2483   14.8497 C.ar    1  UNL1        0.0031
     27 C          66.0756   92.4577   14.8874 C.ar    1  UNL1       -0.0001
     28 C          66.3021   93.2607   13.6408 C.ar    1  UNL1       -0.0009
     29 C          65.6422   92.8542   12.3566 C.ar    1  UNL1        0.0174
     30 C          65.8687   93.6572   11.1100 C.3     1  UNL1        0.0710
     31 C          67.0519   93.3662   10.2351 C.2     1  UNL1        0.0548
     32 O          67.1598   94.0058    8.8826 O.co2   1  UNL1       -0.5488
     33 O          68.1270   92.4357   10.7127 O.co2   1  UNL1       -0.5488
@<TRIPOS>UNITY_ATOM_ATTR
32 1
charge -1
@<TRIPOS>BOND
     1    19    20    1
     2    20    21    1
     3    20     1    1
     4     1     2   ar
     5     2     3   ar
     6     3    22    1
     7    22    23    1
     8    23    24    1
     9    24    25   ar
    10    25    26   ar
    11    26    27   ar
    12    27    28   ar
    13    28    29   ar
    14    29    30    1
    15    30    31    1
    16    31    32   ar
    17    31    33   ar
    18     3     4   ar
    19     4     5   ar
    20     5     7    1
    21     7     8   ar
    22     8     9   ar
    23     9    10   ar
    24    10    11   ar
    25    11    12   ar
    26    11    13    1
    27    13    14    1
    28    13    15    1
    29    15    16    1
    30     5     6   ar
    31     6     1   ar
    32    29    24   ar
    33    12     7   ar
    34    16    10    1
    35    14    17    1
    36    14    18    1
@<TRIPOS>MOLECULE
*****
 33 36 0 0 0
SMALL
GASTEIGER

@<TRIPOS>ATOM
      1 C          60.8361   87.9093    9.2407 C.ar    1  UNL1       -0.0227
      2 C          61.3251   89.2911    9.5594 C.ar    1  UNL1       -0.0050
      3 C          62.2641   89.5078   10.7089 C.ar    1  UNL1        0.0208
      4 C          62.7142   88.3427   11.5396 C.ar    1  UNL1       -0.0007
      5 C          62.2252   86.9610   11.2208 C.ar    1  UNL1       -0.0005
      6 C          61.2861   86.7443   10.0714 C.ar    1  UNL1       -0.0043
      7 C          62.6753   85.7958   12.0515 C.ar    1  UNL1       -0.0001
      8 C          63.1263   86.0126   13.4655 C.ar    1  UNL1        0.0031
      9 C          63.5763   84.8475   14.2961 C.ar    1  UNL1        0.0366
     10 C          63.5754   83.4656   13.7127 C.ar    1  UNL1        0.1360
     11 C          63.1244   83.2488   12.2987 C.ar    1  UNL1        0.0294
     12 C          62.6743   84.4139   11.4681 C.ar    1  UNL1        0.0001
     13 C          63.2316   81.7833   11.9975 C.3     1  UNL1        0.1208
     14 N          62.8828   81.1228   10.6967 N.3     1  UNL1       -0.3157
     15 C          63.7489   81.0943   13.2254 C.3     1  UNL1        0.2253
     16 O          63.9614   82.1340   14.2855 O.3     1  UNL1       -0.4739
     17 H          62.5562   81.8267   10.0347 H       1  UNL1        0.1192
     18 H          62.1463   80.4343   10.8518 H       1  UNL1        0.1192
     19 C          59.4382   88.8592    7.2675 C.3     1  UNL1        0.0047
     20 C          59.8970   87.6926    8.0913 C.3     1  UNL1        0.0223
     21 C          59.4168   86.3094    7.7656 C.3     1  UNL1        0.0047
     22 C          62.7531   90.8896   11.0277 C.3     1  UNL1        0.2320
     23 O          64.1407   91.3031   10.6358 O.3     1  UNL1       -0.4710
     24 C          64.9321   92.2132   11.5276 C.ar    1  UNL1        0.1354
     25 C          65.5099   93.4842   10.9793 C.ar    1  UNL1        0.0366
     26 C          66.3013   94.3943   11.8712 C.ar    1  UNL1        0.0031
     27 C          66.5149   94.0334   13.3113 C.ar    1  UNL1       -0.0001
     28 C          65.9371   92.7624   13.8597 C.ar    1  UNL1       -0.0009
     29 C          65.1457   91.8523   12.9678 C.ar    1  UNL1        0.0174
     30 C          64.5679   90.5813   13.5162 C.3     1  UNL1        0.0710
     31 C          63.5868   90.6311   14.6497 C.2     1  UNL1        0.0548
     32 O          62.4050   89.7075   14.6598 O.co2   1  UNL1       -0.5488
     33 O          63.7876   91.6047   15.7731 O.co2   1  UNL1       -0.5488
@<TRIPOS>UNITY_ATOM_ATTR
32 1
charge -1
@<TRIPOS>BOND
     1    19    20    1
     2    20    21    1
     3    20     1    1
     4     1     2   ar
     5     2     3   ar
     6     3    22    1
     7    22    23    1
     8    23    24    1
     9    24    25   ar
    10    25    26   ar
    11    26    27   ar
    12    27    28   ar
    13    28    29   ar
    14    29    30    1
    15    30    31    1
    16    31    32   ar
    17    31    33   ar
    18     3     4   ar
    19     4     5   ar
    20     5     7    1
    21     7     8   ar
    22     8     9   ar
    23     9    10   ar
    24    10    11   ar
    25    11    12   ar
    26    11    13    1
    27    13    14    1
    28    13    15    1
    29    15    16    1
    30     5     6   ar
    31     6     1   ar
    32    29    24   ar
    33    12     7   ar
    34    16    10    1
    35    14    17    1
    36    14    18    1
@<TRIPOS>MOLECULE
*****
 33 36 0 0 0
SMALL
GASTEIGER

@<TRIPOS>ATOM
      1 C          60.7291   87.4621    8.9101 C.ar    1  UNL1       -0.0227
      2 C          61.2480   86.0552    8.9515 C.ar    1  UNL1       -0.0050
      3 C          62.3232   85.6809    9.9281 C.ar    1  UNL1        0.0208
      4 C          62.8796   86.7134   10.8633 C.ar    1  UNL1       -0.0007
      5 C          62.3607   88.1202   10.8218 C.ar    1  UNL1       -0.0005
      6 C          61.2855   88.4945    9.8452 C.ar    1  UNL1       -0.0043
      7 C          62.9171   89.1527   11.7570 C.ar    1  UNL1       -0.0001
      8 C          63.4845   90.4299   11.2123 C.ar    1  UNL1        0.0031
      9 C          64.0409   91.4623   12.1474 C.ar    1  UNL1        0.0366
     10 C          64.0297   91.2176   13.6273 C.ar    1  UNL1        0.1360
     11 C          63.4623   89.9404   14.1720 C.ar    1  UNL1        0.0294
     12 C          62.9060   88.9080   13.2368 C.ar    1  UNL1        0.0001
     13 C          63.5864   89.9783   15.6663 C.3     1  UNL1        0.1208
     14 N          63.1440   88.9041   16.6152 N.3     1  UNL1       -0.3157
     15 C          64.2305   91.2789   16.0452 C.3     1  UNL1        0.2253
     16 O          64.5045   92.0449   14.7850 O.3     1  UNL1       -0.4739
     17 H          62.7393   88.1303   16.0881 H       1  UNL1        0.1192
     18 H          62.4450   89.2821   17.2547 H       1  UNL1        0.1192
     19 C          58.6043   86.8345    7.5532 C.3     1  UNL1        0.0047
     20 C          59.6539   87.8364    7.9335 C.3     1  UNL1        0.0223
     21 C          59.6282   89.2125    7.3373 C.3     1  UNL1        0.0047
     22 C          62.8421   84.2742    9.9696 C.3     1  UNL1        0.2320
     23 O          63.6766   83.8164   11.1290 O.3     1  UNL1       -0.4710
     24 C          63.1399   82.7874   12.0793 C.ar    1  UNL1        0.1354
     25 C          63.0778   81.3464   11.6676 C.ar    1  UNL1        0.0366
     26 C          62.5411   80.3173   12.6180 C.ar    1  UNL1        0.0031
     27 C          62.0666   80.7294   13.9800 C.ar    1  UNL1       -0.0001
     28 C          62.1287   82.1704   14.3917 C.ar    1  UNL1       -0.0009
     29 C          62.6654   83.1995   13.4414 C.ar    1  UNL1        0.0174
     30 C          62.7275   84.6405   13.8530 C.3     1  UNL1        0.0710
     31 C          63.9244   85.1577   14.5946 C.2     1  UNL1        0.0548
     32 O          63.7847   86.3306   15.5191 O.co2   1  UNL1       -0.5488
     33 O          65.2611   84.5021   14.4116 O.co2   1  UNL1       -0.5488
@<TRIPOS>UNITY_ATOM_ATTR
32 1
charge -1
@<TRIPOS>BOND
     1    19    20    1
     2    20    21    1
     3    20     1    1
     4     1     2   ar
     5     2     3   ar
     6     3    22    1
     7    22    23    1
     8    23    24    1
     9    24    25   ar
    10    25    26   ar
    11    26    27   ar
    12    27    28   ar
    13    28    29   ar
    14    29    30    1
    15    30    31    1
    16    31    32   ar
    17    31    33   ar
    18     3     4   ar
    19     4     5   ar
    20     5     7    1
    21     7     8   ar
    22     8     9   ar
    23     9    10   ar
    24    10    11   ar
    25    11    12   ar
    26    11    13    1
    27    13    14    1
    28    13    15    1
    29    15    16    1
    30     5     6   ar
    31     6     1   ar
    32    29    24   ar
    33    12     7   ar
    34    16    10    1
    35    14    17    1
    36    14    18    1
@<TRIPOS>MOLECULE
*****
 33 36 0 0 0
SMALL
GASTEIGER

@<TRIPOS>ATOM
      1 C          60.7138   88.0939    9.2425 C.ar    1  UNL1       -0.0227
      2 C          60.8331   86.8302   10.0420 C.ar    1  UNL1       -0.0050
      3 C          61.8074   86.7517   11.1798 C.ar    1  UNL1        0.0208
      4 C          62.6625   87.9369   11.5181 C.ar    1  UNL1       -0.0007
      5 C          62.5432   89.2004   10.7186 C.ar    1  UNL1       -0.0005
      6 C          61.5689   89.2789    9.5808 C.ar    1  UNL1       -0.0043
      7 C          63.3983   90.3856   11.0569 C.ar    1  UNL1       -0.0001
      8 C          63.6827   91.4269   10.0154 C.ar    1  UNL1        0.0031
      9 C          64.5377   92.6120   10.3537 C.ar    1  UNL1        0.0366
     10 C          65.1084   92.7557   11.7335 C.ar    1  UNL1        0.1360
     11 C          64.8240   91.7143   12.7749 C.ar    1  UNL1        0.0294
     12 C          63.9689   90.5293   12.4366 C.ar    1  UNL1        0.0001
     13 C          65.5189   92.1222   14.0401 C.3     1  UNL1        0.1208
     14 N          65.5028   91.3688   15.3371 N.3     1  UNL1       -0.3157
     15 C          66.2329   93.4156   13.7806 C.3     1  UNL1        0.2253
     16 O          65.9791   93.8072   12.3550 O.3     1  UNL1       -0.4739
     17 H          64.9409   90.5240   15.2326 H       1  UNL1        0.1192
     18 H          65.1002   91.9568   16.0668 H       1  UNL1        0.1192
     19 C          59.6331   89.4298    7.2939 C.3     1  UNL1        0.0047
     20 C          59.7395   88.1723    8.1048 C.3     1  UNL1        0.0223
     21 C          58.8716   86.9935    7.7779 C.3     1  UNL1        0.0047
     22 C          61.9267   85.4882   11.9793 C.3     1  UNL1        0.2320
     23 O          63.1605   84.6426   11.8660 O.3     1  UNL1       -0.4710
     24 C          63.1746   83.2561   12.4380 C.ar    1  UNL1        0.1354
     25 C          62.6862   82.1005   11.6157 C.ar    1  UNL1        0.0366
     26 C          62.7003   80.7139   12.1878 C.ar    1  UNL1        0.0031
     27 C          63.2029   80.4830   13.5821 C.ar    1  UNL1       -0.0001
     28 C          63.6913   81.6385   14.4044 C.ar    1  UNL1       -0.0009
     29 C          63.6771   83.0251   13.8324 C.ar    1  UNL1        0.0174
     30 C          64.1655   84.1807   14.6546 C.3     1  UNL1        0.0710
     31 C          63.2131   84.9244   15.5433 C.2     1  UNL1        0.0548
     32 O          61.7347   84.7177   15.3976 O.co2   1  UNL1       -0.5488
     33 O          63.7392   85.8748   16.5776 O.co2   1  UNL1       -0.5488
@<TRIPOS>UNITY_ATOM_ATTR
32 1
charge -1
@<TRIPOS>BOND
     1    19    20    1
     2    20    21    1
     3    20     1    1
     4     1     2   ar
     5     2     3   ar
     6     3    22    1
     7    22    23    1
     8    23    24    1
     9    24    25   ar
    10    25    26   ar
    11    26    27   ar
    12    27    28   ar
    13    28    29   ar
    14    29    30    1
    15    30    31    1
    16    31    32   ar
    17    31    33   ar
    18     3     4   ar
    19     4     5   ar
    20     5     7    1
    21     7     8   ar
    22     8     9   ar
    23     9    10   ar
    24    10    11   ar
    25    11    12   ar
    26    11    13    1
    27    13    14    1
    28    13    15    1
    29    15    16    1
    30     5     6   ar
    31     6     1   ar
    32    29    24   ar
    33    12     7   ar
    34    16    10    1
    35    14    17    1
    36    14    18    1
@<TRIPOS>MOLECULE
*****
 33 36 0 0 0
SMALL
GASTEIGER

@<TRIPOS>ATOM
      1 C          62.7255   88.7738   11.8576 C.ar    1  UNL1       -0.0227
      2 C          62.8221   87.3420   12.2945 C.ar    1  UNL1       -0.0050
      3 C          63.6566   86.9762   13.4860 C.ar    1  UNL1        0.0208
      4 C          64.3945   88.0421   14.2407 C.ar    1  UNL1       -0.0007
      5 C          64.2979   89.4738   13.8037 C.ar    1  UNL1       -0.0005
      6 C          63.4634   89.8396   12.6122 C.ar    1  UNL1       -0.0043
      7 C          65.0358   90.5397   14.5584 C.ar    1  UNL1       -0.0001
      8 C          64.3648   91.2572   15.6918 C.ar    1  UNL1        0.0031
      9 C          65.1027   92.3231   16.4464 C.ar    1  UNL1        0.0366
     10 C          66.5116   92.6714   16.0675 C.ar    1  UNL1        0.1360
     11 C          67.1827   91.9538   14.9340 C.ar    1  UNL1        0.0294
     12 C          66.4448   90.8880   14.1795 C.ar    1  UNL1        0.0001
     13 C          68.5688   92.5086   14.7900 C.3     1  UNL1        0.1208
     14 N          69.5900   92.0785   13.7791 N.3     1  UNL1       -0.3157
     15 C          68.7545   93.5691   15.8346 C.3     1  UNL1        0.2253
     16 O          67.4831   93.6697   16.6241 O.3     1  UNL1       -0.4739
     17 H          69.1987   91.3410   13.1931 H       1  UNL1        0.1192
     18 H          70.4179   91.7271   14.2603 H       1  UNL1        0.1192
     19 C          61.1429   90.4396   10.6450 C.3     1  UNL1        0.0047
     20 C          61.8911   89.1396   10.6660 C.3     1  UNL1        0.0223
     21 C          61.8048   88.2056    9.4955 C.3     1  UNL1        0.0047
     22 C          63.7532   85.5445   13.9230 C.3     1  UNL1        0.2320
     23 O          62.5278   84.6795   13.9342 O.3     1  UNL1       -0.4710
     24 C          62.6288   83.2310   13.5579 C.ar    1  UNL1        0.1354
     25 C          62.7308   82.1837   14.6269 C.ar    1  UNL1        0.0366
     26 C          62.8318   80.7352   14.2505 C.ar    1  UNL1        0.0031
     27 C          62.8309   80.3340   12.8052 C.ar    1  UNL1       -0.0001
     28 C          62.7289   81.3812   11.7362 C.ar    1  UNL1       -0.0009
     29 C          62.6279   82.8297   12.1125 C.ar    1  UNL1        0.0174
     30 C          62.5259   83.8770   11.0435 C.3     1  UNL1        0.0710
     31 C          63.5788   83.9671    9.9789 C.2     1  UNL1        0.0548
     32 O          64.7768   83.0660   10.0308 O.co2   1  UNL1       -0.5488
     33 O          63.4336   84.9582    8.8624 O.co2   1  UNL1       -0.5488
@<TRIPOS>UNITY_ATOM_ATTR
32 1
charge -1
@<TRIPOS>BOND
     1    19    20    1
     2    20    21    1
     3    20     1    1
     4     1     2   ar
     5     2     3   ar
     6     3    22    1
     7    22    23    1
     8    23    24    1
     9    24    25   ar
    10    25    26   ar
    11    26    27   ar
    12    27    28   ar
    13    28    29   ar
    14    29    30    1
    15    30    31    1
    16    31    32   ar
    17    31    33   ar
    18     3     4   ar
    19     4     5   ar
    20     5     7    1
    21     7     8   ar
    22     8     9   ar
    23     9    10   ar
    24    10    11   ar
    25    11    12   ar
    26    11    13    1
    27    13    14    1
    28    13    15    1
    29    15    16    1
    30     5     6   ar
    31     6     1   ar
    32    29    24   ar
    33    12     7   ar
    34    16    10    1
    35    14    17    1
    36    14    18    1
@<TRIPOS>MOLECULE
*****
 33 36 0 0 0
SMALL
GASTEIGER

@<TRIPOS>ATOM
      1 C          65.2037   90.8359   14.2561 C.ar    1  UNL1       -0.0227
      2 C          64.4819   91.3530   13.0470 C.ar    1  UNL1       -0.0050
      3 C          63.5710   90.4470   12.2729 C.ar    1  UNL1        0.0208
      4 C          63.3817   89.0239   12.7078 C.ar    1  UNL1       -0.0007
      5 C          64.1034   88.5069   13.9169 C.ar    1  UNL1       -0.0005
      6 C          65.0144   89.4129   14.6910 C.ar    1  UNL1       -0.0043
      7 C          63.9141   87.0838   14.3519 C.ar    1  UNL1       -0.0001
      8 C          64.0027   86.7259   15.8058 C.ar    1  UNL1        0.0031
      9 C          63.8135   85.3029   16.2407 C.ar    1  UNL1        0.0366
     10 C          63.5356   84.2378   15.2217 C.ar    1  UNL1        0.1360
     11 C          63.4470   84.5957   13.7677 C.ar    1  UNL1        0.0294
     12 C          63.6363   86.0187   13.3328 C.ar    1  UNL1        0.0001
     13 C          63.1632   83.3401   12.9977 C.3     1  UNL1        0.1208
     14 N          62.9956   83.2367   11.5107 N.3     1  UNL1       -0.3157
     15 C          63.0763   82.2062   13.9758 C.3     1  UNL1        0.2253
     16 O          63.3065   82.7609   15.3503 O.3     1  UNL1       -0.4739
     17 H          63.1045   84.1601   11.0913 H       1  UNL1        0.1192
     18 H          62.0664   82.8739   11.2977 H       1  UNL1        0.1192
     19 C          65.6003   92.4699   16.2367 C.3     1  UNL1        0.0047
     20 C          66.1146   91.7419   15.0302 C.3     1  UNL1        0.0223
     21 C          67.5399   91.9200   14.5979 C.3     1  UNL1        0.0047
     22 C          62.8493   90.9639   11.0638 C.3     1  UNL1        0.2320
     23 O          62.8498   90.1678    9.7926 O.3     1  UNL1       -0.4710
     24 C          62.1120   88.8636    9.7240 C.ar    1  UNL1        0.1354
     25 C          62.8671   87.5849    9.5130 C.ar    1  UNL1        0.0366
     26 C          62.1292   86.2807    9.4445 C.ar    1  UNL1        0.0031
     27 C          60.6363   86.2553    9.5870 C.ar    1  UNL1       -0.0001
     28 C          59.8811   87.5340    9.7980 C.ar    1  UNL1       -0.0009
     29 C          60.6189   88.8382    9.8665 C.ar    1  UNL1        0.0174
     30 C          59.8638   90.1170   10.0775 C.3     1  UNL1        0.0710
     31 C          59.3948   90.4930   11.4517 C.2     1  UNL1        0.0548
     32 O          58.5357   91.7074   11.6448 O.co2   1  UNL1       -0.5488
     33 O          59.7848   89.6547   12.6329 O.co2   1  UNL1       -0.5488
@<TRIPOS>UNITY_ATOM_ATTR
32 1
charge -1
@<TRIPOS>BOND
     1    19    20    1
     2    20    21    1
     3    20     1    1
     4     1     2   ar
     5     2     3   ar
     6     3    22    1
     7    22    23    1
     8    23    24    1
     9    24    25   ar
    10    25    26   ar
    11    26    27   ar
    12    27    28   ar
    13    28    29   ar
    14    29    30    1
    15    30    31    1
    16    31    32   ar
    17    31    33   ar
    18     3     4   ar
    19     4     5   ar
    20     5     7    1
    21     7     8   ar
    22     8     9   ar
    23     9    10   ar
    24    10    11   ar
    25    11    12   ar
    26    11    13    1
    27    13    14    1
    28    13    15    1
    29    15    16    1
    30     5     6   ar
    31     6     1   ar
    32    29    24   ar
    33    12     7   ar
    34    16    10    1
    35    14    17    1
    36    14    18    1
@<TRIPOS>MOLECULE
*****
 33 36 0 0 0
SMALL
GASTEIGER

@<TRIPOS>ATOM
      1 C          61.4199   88.9287   11.1663 C.ar    1  UNL1       -0.0227
      2 C          62.3199   89.6869   12.0965 C.ar    1  UNL1       -0.0050
      3 C          63.3834   88.9625   12.8674 C.ar    1  UNL1        0.0208
      4 C          63.5468   87.4799   12.7082 C.ar    1  UNL1       -0.0007
      5 C          62.6468   86.7218   11.7780 C.ar    1  UNL1       -0.0005
      6 C          61.5834   87.4462   11.0071 C.ar    1  UNL1       -0.0043
      7 C          62.8103   85.2392   11.6188 C.ar    1  UNL1       -0.0001
      8 C          63.2386   84.6693   10.2990 C.ar    1  UNL1        0.0031
      9 C          63.4020   83.1868   10.1398 C.ar    1  UNL1        0.0366
     10 C          63.1371   82.2742   11.3004 C.ar    1  UNL1        0.1360
     11 C          62.7087   82.8440   12.6201 C.ar    1  UNL1        0.0294
     12 C          62.5453   84.3265   12.7793 C.ar    1  UNL1        0.0001
     13 C          62.5206   81.7049   13.5777 C.3     1  UNL1        0.1208
     14 N          62.0951   81.8196   15.0115 N.3     1  UNL1       -0.3157
     15 C          62.8327   80.4310   12.8498 C.3     1  UNL1        0.2253
     16 O          63.2137   80.7828   11.4423 O.3     1  UNL1       -0.4739
     17 H          61.9495   82.8016   15.2455 H       1  UNL1        0.1192
     18 H          62.8207   81.4305   15.6136 H       1  UNL1        0.1192
     19 C          60.1690   89.3750    8.9333 C.3     1  UNL1        0.0047
     20 C          60.3564   89.6531   10.3954 C.3     1  UNL1        0.0223
     21 C          59.4804   90.6555   11.0865 C.3     1  UNL1        0.0047
     22 C          64.2834   89.7206   13.7975 C.3     1  UNL1        0.2320
     23 O          64.6650   91.1369   13.4834 O.3     1  UNL1       -0.4710
     24 C          65.7863   91.7950   14.2315 C.ar    1  UNL1        0.1354
     25 C          65.6713   92.0196   15.7101 C.ar    1  UNL1        0.0366
     26 C          66.7926   92.6778   16.4582 C.ar    1  UNL1        0.0031
     27 C          68.0289   93.1113   15.7276 C.ar    1  UNL1       -0.0001
     28 C          68.1438   92.8867   14.2490 C.ar    1  UNL1       -0.0009
     29 C          67.0226   92.2285   13.5009 C.ar    1  UNL1        0.0174
     30 C          67.1376   92.0039   12.0223 C.3     1  UNL1        0.0710
     31 C          66.5918   93.0211   11.0645 C.2     1  UNL1        0.0548
     32 O          67.4753   94.1207   10.5543 O.co2   1  UNL1       -0.5488
     33 O          65.1625   92.9387   10.6168 O.co2   1  UNL1       -0.5488
@<TRIPOS>UNITY_ATOM_ATTR
32 1
charge -1
@<TRIPOS>BOND
     1    19    20    1
     2    20    21    1
     3    20     1    1
     4     1     2   ar
     5     2     3   ar
     6     3    22    1
     7    22    23    1
     8    23    24    1
     9    24    25   ar
    10    25    26   ar
    11    26    27   ar
    12    27    28   ar
    13    28    29   ar
    14    29    30    1
    15    30    31    1
    16    31    32   ar
    17    31    33   ar
    18     3     4   ar
    19     4     5   ar
    20     5     7    1
    21     7     8   ar
    22     8     9   ar
    23     9    10   ar
    24    10    11   ar
    25    11    12   ar
    26    11    13    1
    27    13    14    1
    28    13    15    1
    29    15    16    1
    30     5     6   ar
    31     6     1   ar
    32    29    24   ar
    33    12     7   ar
    34    16    10    1
    35    14    17    1
    36    14    18    1
