@<TRIPOS>MOLECULE
*****
 35 40 0 0 0
SMALL
GASTEIGER

@<TRIPOS>ATOM
      1 C          63.5973   87.5207   13.7938 C.ar    1  UNL1        0.2182
      2 N          63.8916   86.2352   14.5085 N.ar    1  UNL1       -0.2122
      3 C          63.6623   84.9236   13.8177 C.ar    1  UNL1        0.1049
      4 C          63.1385   84.8976   12.4124 C.ar    1  UNL1        0.0582
      5 C          62.8442   86.1831   11.6977 C.ar    1  UNL1        0.1533
      6 N          63.0736   87.4947   12.3885 N.ar    1  UNL1       -0.1960
      7 N          62.3205   86.1571   10.2924 N.ar    1  UNL1       -0.2739
      8 C          62.7110   85.1795    9.2239 C.ar    1  UNL1        0.0974
      9 C          61.9461   85.5223    7.9799 C.ar    1  UNL1        0.0778
     10 N          61.0830   86.7119    8.2795 N.ar    1  UNL1       -0.2307
     11 C          61.3143   87.1042    9.7087 C.ar    1  UNL1        0.1484
     12 C          60.6552   88.2436   10.4280 C.ar    1  UNL1        0.0353
     13 C          60.9852   89.6583   10.0535 C.ar    1  UNL1        0.0031
     14 C          60.3261   90.7977   10.7728 C.ar    1  UNL1        0.0010
     15 C          59.3370   90.5225   11.8664 C.ar    1  UNL1        0.0114
     16 C          59.0071   89.1080   12.2408 C.ar    1  UNL1        0.0578
     17 CL         58.0180   88.8329   13.3345 Cl      1  UNL1       -0.0822
     18 C          59.6662   87.9686   11.5216 C.ar    1  UNL1        0.0144
     19 C          62.0298   84.8020    6.6668 C.3     1  UNL1        0.0419
     20 C          62.8118   84.4075    5.4491 C.3     1  UNL1        0.0064
     21 C          61.3927   83.9489    5.6102 C.3     1  UNL1        0.0064
     22 N          63.8267   88.8324   14.4846 N.pl3   1  UNL1       -0.3028
     23 H          63.6937   88.9063   15.4573 H       1  UNL1        0.1496
     24 O          67.5359   93.2357   13.9588 O.2     1  UNL1       -0.2677
     25 C          66.4787   93.1150   12.9016 C.2     1  UNL1        0.2730
     26 N          65.4776   91.9998   12.9658 N.am    1  UNL1       -0.2727
     27 C          64.3691   91.7525   11.9858 C.3     1  UNL1        0.0956
     28 C          63.6158   90.5359   12.4355 C.3     1  UNL1        0.0428
     29 C          64.2586   90.0312   13.6934 C.3     1  UNL1        0.0932
     30 C          65.4093   90.9360   14.0210 C.3     1  UNL1        0.1133
     31 C          66.4225   94.1097   11.7802 C.ar    1  UNL1        0.1643
     32 N          66.0289   95.5522   11.9000 N.ar    1  UNL1       -0.2322
     33 C          66.1132   96.1705   10.5360 C.ar    1  UNL1        0.1066
     34 C          66.5589   95.1102    9.5732 C.ar    1  UNL1        0.0577
     35 S          66.7500   93.8365   10.3422 S.2     1  UNL1       -0.0614
@<TRIPOS>BOND
     1    24    25    2
     2    25    31    1
     3    31    32   ar
     4    32    33   ar
     5    33    34   ar
     6    34    35   ar
     7    25    26   am
     8    26    27    1
     9    27    28    1
    10    28    29    1
    11    29    22    1
    12    22     1    1
    13     1     2   ar
    14     2     3   ar
    15     3     4   ar
    16     4     5   ar
    17     5     7    1
    18     7     8   ar
    19     8     9   ar
    20     9    19    1
    21    19    20    1
    22    20    21    1
    23     9    10   ar
    24    10    11   ar
    25    11    12    1
    26    12    13   ar
    27    13    14   ar
    28    14    15   ar
    29    15    16   ar
    30    16    17    1
    31    16    18   ar
    32     5     6   ar
    33    29    30    1
    34    35    31   ar
    35    30    26    1
    36     6     1   ar
    37    11     7   ar
    38    18    12   ar
    39    21    19    1
    40    22    23    1
@<TRIPOS>MOLECULE
*****
 35 40 0 0 0
SMALL
GASTEIGER

@<TRIPOS>ATOM
      1 C          64.2797   88.2616   14.5074 C.ar    1  UNL1        0.2182
      2 N          64.7146   87.0179   15.2244 N.ar    1  UNL1       -0.2122
      3 C          64.3659   85.6699   14.6667 C.ar    1  UNL1        0.1049
      4 C          63.5822   85.5654   13.3920 C.ar    1  UNL1        0.0582
      5 C          63.1472   86.8091   12.6749 C.ar    1  UNL1        0.1533
      6 N          63.4960   88.1571   13.2326 N.ar    1  UNL1       -0.1960
      7 N          62.3635   86.7046   11.4002 N.ar    1  UNL1       -0.2739
      8 C          61.6410   87.8264   10.7150 C.ar    1  UNL1        0.0974
      9 C          60.9957   87.2752    9.4782 C.ar    1  UNL1        0.0778
     10 N          61.3194   85.8127    9.3990 N.ar    1  UNL1       -0.2307
     11 C          62.1647   85.4601   10.5869 C.ar    1  UNL1        0.1484
     12 C          62.7148   84.1014   10.9055 C.ar    1  UNL1        0.0353
     13 C          63.8694   83.5562   10.1182 C.ar    1  UNL1        0.0031
     14 C          64.4194   82.1975   10.4368 C.ar    1  UNL1        0.0010
     15 C          63.8148   81.3840   11.5426 C.ar    1  UNL1        0.0114
     16 C          62.6603   81.9292   12.3297 C.ar    1  UNL1        0.0578
     17 CL         62.0557   81.1157   13.4355 Cl      1  UNL1       -0.0822
     18 C          62.1102   83.2879   12.0112 C.ar    1  UNL1        0.0144
     19 C          60.1714   88.0504    8.4935 C.3     1  UNL1        0.0419
     20 C          59.8232   89.3490    7.8284 C.3     1  UNL1        0.0064
     21 C          59.0919   88.0943    7.4529 C.3     1  UNL1        0.0064
     22 N          64.6284   89.6097   15.0651 N.pl3   1  UNL1       -0.3028
     23 H          64.5466   89.7788   16.0315 H       1  UNL1        0.1496
     24 O          63.9661   92.3593   10.0228 O.2     1  UNL1       -0.2677
     25 C          65.0651   92.8492   10.9184 C.2     1  UNL1        0.2730
     26 N          65.3025   92.1892   12.2443 N.am    1  UNL1       -0.2727
     27 C          66.3578   92.5673   13.2410 C.3     1  UNL1        0.0956
     28 C          66.2337   91.6470   14.4190 C.3     1  UNL1        0.0428
     29 C          65.1017   90.7002   14.1503 C.3     1  UNL1        0.0932
     30 C          64.5262   91.0353   12.8063 C.3     1  UNL1        0.1133
     31 C          65.9267   93.9992   10.4881 C.ar    1  UNL1        0.1643
     32 N          65.7610   95.4301   10.9065 N.ar    1  UNL1       -0.2322
     33 C          66.8373   96.2353   10.2407 C.ar    1  UNL1        0.1066
     34 C          67.6682   95.3022    9.4109 C.ar    1  UNL1        0.0577
     35 S          67.1055   93.9202    9.5638 S.2     1  UNL1       -0.0614
@<TRIPOS>BOND
     1    24    25    2
     2    25    31    1
     3    31    32   ar
     4    32    33   ar
     5    33    34   ar
     6    34    35   ar
     7    25    26   am
     8    26    27    1
     9    27    28    1
    10    28    29    1
    11    29    22    1
    12    22     1    1
    13     1     2   ar
    14     2     3   ar
    15     3     4   ar
    16     4     5   ar
    17     5     7    1
    18     7     8   ar
    19     8     9   ar
    20     9    19    1
    21    19    20    1
    22    20    21    1
    23     9    10   ar
    24    10    11   ar
    25    11    12    1
    26    12    13   ar
    27    13    14   ar
    28    14    15   ar
    29    15    16   ar
    30    16    17    1
    31    16    18   ar
    32     5     6   ar
    33    29    30    1
    34    35    31   ar
    35    30    26    1
    36     6     1   ar
    37    11     7   ar
    38    18    12   ar
    39    21    19    1
    40    22    23    1
@<TRIPOS>MOLECULE
*****
 35 40 0 0 0
SMALL
GASTEIGER

@<TRIPOS>ATOM
      1 C          61.8952   88.2592    9.9327 C.ar    1  UNL1        0.2182
      2 N          60.4564   88.6215   10.1531 N.ar    1  UNL1       -0.2122
      3 C          60.1027   89.9272   10.8012 C.ar    1  UNL1        0.1049
      4 C          61.1877   90.8705   11.2287 C.ar    1  UNL1        0.0582
      5 C          62.6264   90.5082   11.0083 C.ar    1  UNL1        0.1533
      6 N          62.9802   89.2025   10.3603 N.ar    1  UNL1       -0.1960
      7 N          63.7114   91.4516   11.4359 N.ar    1  UNL1       -0.2739
      8 C          64.2952   92.5575   10.6076 C.ar    1  UNL1        0.0974
      9 C          65.3477   93.2441   11.4267 C.ar    1  UNL1        0.0778
     10 N          65.4145   92.5625   12.7612 N.ar    1  UNL1       -0.2307
     11 C          64.4032   91.4546   12.7669 C.ar    1  UNL1        0.1484
     12 C          64.1314   90.5148   13.9039 C.ar    1  UNL1        0.0353
     13 C          63.6090   91.0447   15.2065 C.ar    1  UNL1        0.0031
     14 C          63.3373   90.1049   16.3435 C.ar    1  UNL1        0.0010
     15 C          63.5878   88.6353   16.1781 C.ar    1  UNL1        0.0114
     16 C          64.1101   88.1054   14.8757 C.ar    1  UNL1        0.0578
     17 CL         64.3607   86.6358   14.7103 Cl      1  UNL1       -0.0822
     18 C          64.3819   89.0452   13.7386 C.ar    1  UNL1        0.0144
     19 C          66.1863   94.4080   10.9882 C.3     1  UNL1        0.0419
     20 C          66.5487   95.8599   11.0911 C.3     1  UNL1        0.0064
     21 C          67.2763   94.9719   10.1257 C.3     1  UNL1        0.0064
     22 N          62.2490   86.9534    9.2846 N.pl3   1  UNL1       -0.3028
     23 H          62.3727   86.9056    8.3090 H       1  UNL1        0.1496
     24 O          61.8489   84.5434   14.5244 O.2     1  UNL1       -0.2677
     25 C          62.3135   83.6559   13.4080 C.2     1  UNL1        0.2730
     26 N          62.4441   84.2049   12.0181 N.am    1  UNL1       -0.2727
     27 C          62.8939   83.4420   10.8075 C.3     1  UNL1        0.0956
     28 C          62.8756   84.3788    9.6361 C.3     1  UNL1        0.0428
     29 C          62.4145   85.7206   10.1228 C.3     1  UNL1        0.0932
     30 C          62.1478   85.6131   11.5950 C.3     1  UNL1        0.1133
     31 C          62.6476   82.2194   13.6814 C.ar    1  UNL1        0.1643
     32 N          64.0145   81.6705   13.9648 N.ar    1  UNL1       -0.2322
     33 C          63.8851   80.1914   14.1779 C.ar    1  UNL1        0.1066
     34 C          62.4382   79.8261   14.0263 C.ar    1  UNL1        0.0577
     35 S          61.6734   81.0794   13.7194 S.2     1  UNL1       -0.0614
@<TRIPOS>BOND
     1    24    25    2
     2    25    31    1
     3    31    32   ar
     4    32    33   ar
     5    33    34   ar
     6    34    35   ar
     7    25    26   am
     8    26    27    1
     9    27    28    1
    10    28    29    1
    11    29    22    1
    12    22     1    1
    13     1     2   ar
    14     2     3   ar
    15     3     4   ar
    16     4     5   ar
    17     5     7    1
    18     7     8   ar
    19     8     9   ar
    20     9    19    1
    21    19    20    1
    22    20    21    1
    23     9    10   ar
    24    10    11   ar
    25    11    12    1
    26    12    13   ar
    27    13    14   ar
    28    14    15   ar
    29    15    16   ar
    30    16    17    1
    31    16    18   ar
    32     5     6   ar
    33    29    30    1
    34    35    31   ar
    35    30    26    1
    36     6     1   ar
    37    11     7   ar
    38    18    12   ar
    39    21    19    1
    40    22    23    1
@<TRIPOS>MOLECULE
*****
 35 40 0 0 0
SMALL
GASTEIGER

@<TRIPOS>ATOM
      1 C          62.1532   87.8252   11.4048 C.ar    1  UNL1        0.2182
      2 N          62.0840   88.1935    9.9524 N.ar    1  UNL1       -0.2122
      3 C          62.2537   87.1365    8.9018 C.ar    1  UNL1        0.1049
      4 C          62.4926   85.7112    9.3035 C.ar    1  UNL1        0.0582
      5 C          62.5618   85.3429   10.7559 C.ar    1  UNL1        0.1533
      6 N          62.3921   86.3999   11.8066 N.ar    1  UNL1       -0.1960
      7 N          62.8007   83.9176   11.1577 N.ar    1  UNL1       -0.2739
      8 C          62.6177   82.7125   10.2835 C.ar    1  UNL1        0.0974
      9 C          62.9684   81.4972   11.0897 C.ar    1  UNL1        0.0778
     10 N          63.3682   81.9512   12.4623 N.ar    1  UNL1       -0.2307
     11 C          63.2646   83.4470   12.5043 C.ar    1  UNL1        0.1484
     12 C          63.5710   84.3192   13.6856 C.ar    1  UNL1        0.0353
     13 C          64.9133   84.9786   13.8029 C.ar    1  UNL1        0.0031
     14 C          65.2197   85.8508   14.9842 C.ar    1  UNL1        0.0010
     15 C          64.1840   86.0635   16.0482 C.ar    1  UNL1        0.0114
     16 C          62.8419   85.4041   15.9309 C.ar    1  UNL1        0.0578
     17 CL         61.8062   85.6168   16.9949 Cl      1  UNL1       -0.0822
     18 C          62.5354   84.5319   14.7496 C.ar    1  UNL1        0.0144
     19 C          62.9266   80.0773   10.6079 C.3     1  UNL1        0.0419
     20 C          62.9400   79.0868    9.4816 C.3     1  UNL1        0.0064
     21 C          62.8409   78.6085   10.8999 C.3     1  UNL1        0.0064
     22 N          61.9835   88.8823   12.4555 N.pl3   1  UNL1       -0.3028
     23 H          61.0865   89.0906   12.8037 H       1  UNL1        0.1496
     24 O          65.6413   93.3075   11.7762 O.2     1  UNL1       -0.2677
     25 C          65.8734   92.4169   12.9606 C.2     1  UNL1        0.2730
     26 N          64.9684   91.2464   13.2077 N.am    1  UNL1       -0.2727
     27 C          65.0760   90.2731   14.3441 C.3     1  UNL1        0.0956
     28 C          63.9710   89.2691   14.2006 C.3     1  UNL1        0.0428
     29 C          63.1804   89.6218   12.9756 C.3     1  UNL1        0.0932
     30 C          63.7968   90.8439   12.3620 C.3     1  UNL1        0.1133
     31 C          67.0107   92.6966   13.8979 C.ar    1  UNL1        0.1643
     32 N          68.4278   92.2355   13.7272 N.ar    1  UNL1       -0.2322
     33 C          69.2233   92.7405   14.8942 C.ar    1  UNL1        0.1066
     34 C          68.2979   93.5138   15.7862 C.ar    1  UNL1        0.0577
     35 S          66.9304   93.4867   15.1704 S.2     1  UNL1       -0.0614
@<TRIPOS>BOND
     1    24    25    2
     2    25    31    1
     3    31    32   ar
     4    32    33   ar
     5    33    34   ar
     6    34    35   ar
     7    25    26   am
     8    26    27    1
     9    27    28    1
    10    28    29    1
    11    29    22    1
    12    22     1    1
    13     1     2   ar
    14     2     3   ar
    15     3     4   ar
    16     4     5   ar
    17     5     7    1
    18     7     8   ar
    19     8     9   ar
    20     9    19    1
    21    19    20    1
    22    20    21    1
    23     9    10   ar
    24    10    11   ar
    25    11    12    1
    26    12    13   ar
    27    13    14   ar
    28    14    15   ar
    29    15    16   ar
    30    16    17    1
    31    16    18   ar
    32     5     6   ar
    33    29    30    1
    34    35    31   ar
    35    30    26    1
    36     6     1   ar
    37    11     7   ar
    38    18    12   ar
    39    21    19    1
    40    22    23    1
@<TRIPOS>MOLECULE
*****
 35 40 0 0 0
SMALL
GASTEIGER

@<TRIPOS>ATOM
      1 C          62.3763   88.1286   11.7529 C.ar    1  UNL1        0.2182
      2 N          61.5882   88.4602   10.5205 N.ar    1  UNL1       -0.2122
      3 C          61.1417   87.3646    9.5985 C.ar    1  UNL1        0.1049
      4 C          61.4834   85.9374    9.9088 C.ar    1  UNL1        0.0582
      5 C          62.2715   85.6058   11.1412 C.ar    1  UNL1        0.1533
      6 N          62.7179   86.7014   12.0633 N.ar    1  UNL1       -0.1960
      7 N          62.6132   84.1786   11.4515 N.ar    1  UNL1       -0.2739
      8 C          62.4221   83.0068   10.5348 C.ar    1  UNL1        0.0974
      9 C          62.8968   81.7766   11.2497 C.ar    1  UNL1        0.0778
     10 N          63.3812   82.1880   12.6084 N.ar    1  UNL1       -0.2307
     11 C          63.2059   83.6725   12.7331 C.ar    1  UNL1        0.1484
     12 C          63.5611   84.5048   13.9295 C.ar    1  UNL1        0.0353
     13 C          64.9200   85.1318   14.0302 C.ar    1  UNL1        0.0031
     14 C          65.2752   85.9641   15.2265 C.ar    1  UNL1        0.0010
     15 C          64.2714   86.1694   16.3221 C.ar    1  UNL1        0.0114
     16 C          62.9125   85.5423   16.2214 C.ar    1  UNL1        0.0578
     17 CL         61.9088   85.7475   17.3170 Cl      1  UNL1       -0.0822
     18 C          62.5574   84.7100   15.0250 C.ar    1  UNL1        0.0144
     19 C          62.8884   80.3801   10.7022 C.3     1  UNL1        0.0419
     20 C          62.8130   78.8985   10.9234 C.3     1  UNL1        0.0064
     21 C          62.9495   79.4431    9.5324 C.3     1  UNL1        0.0064
     22 N          62.8228   89.2243   12.6751 N.pl3   1  UNL1       -0.3028
     23 H          62.6190   89.1718   13.6368 H       1  UNL1        0.1496
     24 O          66.5180   93.5423   13.7350 O.2     1  UNL1       -0.2677
     25 C          66.0047   93.4239   12.3306 C.2     1  UNL1        0.2730
     26 N          65.0422   92.3302   11.9735 N.am    1  UNL1       -0.2727
     27 C          64.4466   92.0876   10.6184 C.3     1  UNL1        0.0956
     28 C          63.5427   90.8945   10.7163 C.3     1  UNL1        0.0428
     29 C          63.5797   90.3998   12.1319 C.3     1  UNL1        0.0932
     30 C          64.5064   91.2871   12.9089 C.3     1  UNL1        0.1133
     31 C          66.4539   94.3992   11.2832 C.ar    1  UNL1        0.1643
     32 N          67.4375   94.1227   10.1849 N.ar    1  UNL1       -0.2322
     33 C          67.5898   95.3749    9.3732 C.ar    1  UNL1        0.1066
     34 C          66.7005   96.4252    9.9698 C.ar    1  UNL1        0.0577
     35 S          65.9985   95.8222   11.1502 S.2     1  UNL1       -0.0614
@<TRIPOS>BOND
     1    24    25    2
     2    25    31    1
     3    31    32   ar
     4    32    33   ar
     5    33    34   ar
     6    34    35   ar
     7    25    26   am
     8    26    27    1
     9    27    28    1
    10    28    29    1
    11    29    22    1
    12    22     1    1
    13     1     2   ar
    14     2     3   ar
    15     3     4   ar
    16     4     5   ar
    17     5     7    1
    18     7     8   ar
    19     8     9   ar
    20     9    19    1
    21    19    20    1
    22    20    21    1
    23     9    10   ar
    24    10    11   ar
    25    11    12    1
    26    12    13   ar
    27    13    14   ar
    28    14    15   ar
    29    15    16   ar
    30    16    17    1
    31    16    18   ar
    32     5     6   ar
    33    29    30    1
    34    35    31   ar
    35    30    26    1
    36     6     1   ar
    37    11     7   ar
    38    18    12   ar
    39    21    19    1
    40    22    23    1
@<TRIPOS>MOLECULE
*****
 35 40 0 0 0
SMALL
GASTEIGER

@<TRIPOS>ATOM
      1 C          64.0467   87.2170   15.8134 C.ar    1  UNL1        0.2182
      2 N          63.0719   87.6784   16.8559 N.ar    1  UNL1       -0.2122
      3 C          62.4125   89.0193   16.7249 C.ar    1  UNL1        0.1049
      4 C          62.7277   89.8987   15.5514 C.ar    1  UNL1        0.0582
      5 C          63.7025   89.4373   14.5088 C.ar    1  UNL1        0.1533
      6 N          64.3619   88.0965   14.6398 N.ar    1  UNL1       -0.1960
      7 N          64.0177   90.3168   13.3353 N.ar    1  UNL1       -0.2739
      8 C          64.9808   91.4667   13.3288 C.ar    1  UNL1        0.0974
      9 C          64.9836   92.0613   11.9517 C.ar    1  UNL1        0.0778
     10 N          64.0222   91.2788   11.1070 N.ar    1  UNL1       -0.2307
     11 C          63.4253   90.2006   11.9622 C.ar    1  UNL1        0.1484
     12 C          62.4135   89.1847   11.5214 C.ar    1  UNL1        0.0353
     13 C          61.0573   89.6285   11.0589 C.ar    1  UNL1        0.0031
     14 C          60.0456   88.6126   10.6182 C.ar    1  UNL1        0.0010
     15 C          60.3900   87.1528   10.6400 C.ar    1  UNL1        0.0114
     16 C          61.7461   86.7090   11.1025 C.ar    1  UNL1        0.0578
     17 CL         62.0905   85.2493   11.1243 Cl      1  UNL1       -0.0822
     18 C          62.7578   87.7250   11.5432 C.ar    1  UNL1        0.0144
     19 C          65.8037   93.2328   11.4988 C.3     1  UNL1        0.0419
     20 C          66.2654   94.6470   11.6904 C.3     1  UNL1        0.0064
     21 C          66.7626   93.8474   10.5227 C.3     1  UNL1        0.0064
     22 N          64.7062   85.8761   15.9443 N.pl3   1  UNL1       -0.3028
     23 H          65.3344   85.7066   16.6831 H       1  UNL1        0.1496
     24 O          61.3162   81.4362   14.4547 O.2     1  UNL1       -0.2677
     25 C          62.4430   81.7666   13.5214 C.2     1  UNL1        0.2730
     26 N          63.3682   82.9047   13.8360 N.am    1  UNL1       -0.2727
     27 C          64.5326   83.3507   13.0020 C.3     1  UNL1        0.0956
     28 C          65.1755   84.5181   13.6903 C.3     1  UNL1        0.0428
     29 C          64.4085   84.7936   14.9496 C.3     1  UNL1        0.0932
     30 C          63.2916   83.7964   15.0396 C.3     1  UNL1        0.1133
     31 C          62.6446   80.9591   12.2736 C.ar    1  UNL1        0.1643
     32 N          62.5181   79.4689   12.1577 N.ar    1  UNL1       -0.2322
     33 C          62.8034   79.0888   10.7350 C.ar    1  UNL1        0.1066
     34 C          63.1062   80.3439    9.9715 C.ar    1  UNL1        0.0577
     35 S          63.0080   81.4998   10.9225 S.2     1  UNL1       -0.0614
@<TRIPOS>BOND
     1    24    25    2
     2    25    31    1
     3    31    32   ar
     4    32    33   ar
     5    33    34   ar
     6    34    35   ar
     7    25    26   am
     8    26    27    1
     9    27    28    1
    10    28    29    1
    11    29    22    1
    12    22     1    1
    13     1     2   ar
    14     2     3   ar
    15     3     4   ar
    16     4     5   ar
    17     5     7    1
    18     7     8   ar
    19     8     9   ar
    20     9    19    1
    21    19    20    1
    22    20    21    1
    23     9    10   ar
    24    10    11   ar
    25    11    12    1
    26    12    13   ar
    27    13    14   ar
    28    14    15   ar
    29    15    16   ar
    30    16    17    1
    31    16    18   ar
    32     5     6   ar
    33    29    30    1
    34    35    31   ar
    35    30    26    1
    36     6     1   ar
    37    11     7   ar
    38    18    12   ar
    39    21    19    1
    40    22    23    1
@<TRIPOS>MOLECULE
*****
 35 40 0 0 0
SMALL
GASTEIGER

@<TRIPOS>ATOM
      1 C          63.9744   89.5708   13.3784 C.ar    1  UNL1        0.2182
      2 N          62.6712   89.3414   12.6721 N.ar    1  UNL1       -0.2122
      3 C          62.2445   90.2622   11.5676 C.ar    1  UNL1        0.1049
      4 C          63.1211   91.4124   11.1694 C.ar    1  UNL1        0.0582
      5 C          64.4243   91.6418   11.8757 C.ar    1  UNL1        0.1533
      6 N          64.8510   90.7210   12.9802 N.ar    1  UNL1       -0.1960
      7 N          65.3009   92.7921   11.4775 N.ar    1  UNL1       -0.2739
      8 C          65.2508   93.5279   10.1713 C.ar    1  UNL1        0.0974
      9 C          66.3004   94.5990   10.2021 C.ar    1  UNL1        0.0778
     10 N          66.9993   94.5252   11.5273 N.ar    1  UNL1       -0.2307
     11 C          66.3816   93.4085   12.3155 C.ar    1  UNL1        0.1484
     12 C          66.7754   92.9828   13.6989 C.ar    1  UNL1        0.0353
     13 C          68.1937   92.5886   13.9871 C.ar    1  UNL1        0.0031
     14 C          68.5875   92.1629   15.3705 C.ar    1  UNL1        0.0010
     15 C          67.5631   92.1316   16.4657 C.ar    1  UNL1        0.0114
     16 C          66.1448   92.5258   16.1775 C.ar    1  UNL1        0.0578
     17 CL         65.1204   92.4945   17.2727 Cl      1  UNL1       -0.0822
     18 C          65.7510   92.9515   14.7941 C.ar    1  UNL1        0.0144
     19 C          66.5988   95.5730    9.1010 C.3     1  UNL1        0.0419
     20 C          66.1445   96.6497    8.1606 C.3     1  UNL1        0.0064
     21 C          67.5699   96.1831    8.1341 C.3     1  UNL1        0.0064
     22 N          64.4012   88.6499   14.4829 N.pl3   1  UNL1       -0.3028
     23 H          64.8901   89.0062   15.2596 H       1  UNL1        0.1496
     24 O          62.4389   84.2642   11.2675 O.2     1  UNL1       -0.2677
     25 C          62.8499   83.9385   12.6729 C.2     1  UNL1        0.2730
     26 N          63.3699   85.0206   13.5721 N.am    1  UNL1       -0.2727
     27 C          63.8166   84.8469   14.9936 C.3     1  UNL1        0.0956
     28 C          64.2573   86.1853   15.5077 C.3     1  UNL1        0.0428
     29 C          64.0830   87.1862   14.4041 C.3     1  UNL1        0.0932
     30 C          63.5345   86.4663   13.2079 C.3     1  UNL1        0.1133
     31 C          62.7409   82.5306   13.1789 C.ar    1  UNL1        0.1643
     32 N          61.5669   81.9430   13.9046 N.ar    1  UNL1       -0.2322
     33 C          61.8872   80.5124   14.2224 C.ar    1  UNL1        0.1066
     34 C          63.2590   80.2159   13.6930 C.ar    1  UNL1        0.0577
     35 S          63.7866   81.4632   13.0482 S.2     1  UNL1       -0.0614
@<TRIPOS>BOND
     1    24    25    2
     2    25    31    1
     3    31    32   ar
     4    32    33   ar
     5    33    34   ar
     6    34    35   ar
     7    25    26   am
     8    26    27    1
     9    27    28    1
    10    28    29    1
    11    29    22    1
    12    22     1    1
    13     1     2   ar
    14     2     3   ar
    15     3     4   ar
    16     4     5   ar
    17     5     7    1
    18     7     8   ar
    19     8     9   ar
    20     9    19    1
    21    19    20    1
    22    20    21    1
    23     9    10   ar
    24    10    11   ar
    25    11    12    1
    26    12    13   ar
    27    13    14   ar
    28    14    15   ar
    29    15    16   ar
    30    16    17    1
    31    16    18   ar
    32     5     6   ar
    33    29    30    1
    34    35    31   ar
    35    30    26    1
    36     6     1   ar
    37    11     7   ar
    38    18    12   ar
    39    21    19    1
    40    22    23    1
@<TRIPOS>MOLECULE
*****
 35 40 0 0 0
SMALL
GASTEIGER

@<TRIPOS>ATOM
      1 C          62.1937   90.5424   10.3819 C.ar    1  UNL1        0.2182
      2 N          60.7208   90.8261   10.3844 N.ar    1  UNL1       -0.2122
      3 C          59.7482   89.7382   10.7312 C.ar    1  UNL1        0.1049
      4 C          60.2484   88.3666   11.0755 C.ar    1  UNL1        0.0582
      5 C          61.7213   88.0829   11.0730 C.ar    1  UNL1        0.1533
      6 N          62.6940   89.1708   10.7262 N.ar    1  UNL1       -0.1960
      7 N          62.2215   86.7113   11.4173 N.ar    1  UNL1       -0.2739
      8 C          62.8124   86.2923   12.7308 C.ar    1  UNL1        0.0974
      9 C          63.1748   84.8400   12.6339 C.ar    1  UNL1        0.0778
     10 N          62.8078   84.3614   11.2604 N.ar    1  UNL1       -0.2307
     11 C          62.2187   85.5179   10.5086 C.ar    1  UNL1        0.1484
     12 C          61.7151   85.4866    9.0960 C.ar    1  UNL1        0.0353
     13 C          60.3744   86.0722    8.7645 C.ar    1  UNL1        0.0031
     14 C          59.8709   86.0409    7.3519 C.ar    1  UNL1        0.0010
     15 C          60.7078   85.4239    6.2708 C.ar    1  UNL1        0.0114
     16 C          62.0484   84.8383    6.6023 C.ar    1  UNL1        0.0578
     17 CL         62.8854   84.2213    5.5212 Cl      1  UNL1       -0.0822
     18 C          62.5520   84.8696    8.0149 C.ar    1  UNL1        0.0144
     19 C          63.7952   84.0117   13.7197 C.3     1  UNL1        0.0419
     20 C          64.6828   83.9027   14.9240 C.3     1  UNL1        0.0064
     21 C          63.9821   82.6860   14.3961 C.3     1  UNL1        0.0064
     22 N          63.1665   91.6303   10.0350 N.pl3   1  UNL1       -0.3028
     23 H          63.0606   92.1367    9.1974 H       1  UNL1        0.1496
     24 O          65.2477   91.4047   15.4241 O.2     1  UNL1       -0.2677
     25 C          66.1289   92.0356   14.3871 C.2     1  UNL1        0.2730
     26 N          65.6622   92.1330   12.9649 N.am    1  UNL1       -0.2727
     27 C          66.4291   92.7342   11.8244 C.3     1  UNL1        0.0956
     28 C          65.5876   92.6191   10.5881 C.3     1  UNL1        0.0428
     29 C          64.3005   91.9467   10.9644 C.3     1  UNL1        0.0932
     30 C          64.3467   91.6464   12.4333 C.3     1  UNL1        0.1133
     31 C          67.4768   92.5692   14.7724 C.ar    1  UNL1        0.1643
     32 N          68.7843   92.2064   14.1329 N.ar    1  UNL1       -0.2322
     33 C          69.8694   92.9722   14.8301 C.ar    1  UNL1        0.1066
     34 C          69.2326   93.8083   15.9004 C.ar    1  UNL1        0.0577
     35 S          67.7539   93.5591   15.8647 S.2     1  UNL1       -0.0614
@<TRIPOS>BOND
     1    24    25    2
     2    25    31    1
     3    31    32   ar
     4    32    33   ar
     5    33    34   ar
     6    34    35   ar
     7    25    26   am
     8    26    27    1
     9    27    28    1
    10    28    29    1
    11    29    22    1
    12    22     1    1
    13     1     2   ar
    14     2     3   ar
    15     3     4   ar
    16     4     5   ar
    17     5     7    1
    18     7     8   ar
    19     8     9   ar
    20     9    19    1
    21    19    20    1
    22    20    21    1
    23     9    10   ar
    24    10    11   ar
    25    11    12    1
    26    12    13   ar
    27    13    14   ar
    28    14    15   ar
    29    15    16   ar
    30    16    17    1
    31    16    18   ar
    32     5     6   ar
    33    29    30    1
    34    35    31   ar
    35    30    26    1
    36     6     1   ar
    37    11     7   ar
    38    18    12   ar
    39    21    19    1
    40    22    23    1
@<TRIPOS>MOLECULE
*****
 35 40 0 0 0
SMALL
GASTEIGER

@<TRIPOS>ATOM
      1 C          59.4397   88.0118    7.7456 C.ar    1  UNL1        0.2182
      2 N          59.6503   86.7050    7.0400 N.ar    1  UNL1       -0.2122
      3 C          60.6682   85.7306    7.5542 C.ar    1  UNL1        0.1049
      4 C          61.4754   86.0630    8.7740 C.ar    1  UNL1        0.0582
      5 C          61.2648   87.3698    9.4796 C.ar    1  UNL1        0.1533
      6 N          60.2469   88.3442    8.9654 N.ar    1  UNL1       -0.1960
      7 N          62.0720   87.7022   10.6994 N.ar    1  UNL1       -0.2739
      8 C          62.2554   89.0688   11.2899 C.ar    1  UNL1        0.0974
      9 C          63.1343   88.9376   12.4984 C.ar    1  UNL1        0.0778
     10 N          63.4941   87.4898   12.6547 N.ar    1  UNL1       -0.2307
     11 C          62.8376   86.7263   11.5429 C.ar    1  UNL1        0.1484
     12 C          62.9304   85.2467   11.3148 C.ar    1  UNL1        0.0353
     13 C          63.5410   84.7197   10.0500 C.ar    1  UNL1        0.0031
     14 C          63.6338   83.2400    9.8218 C.ar    1  UNL1        0.0010
     15 C          63.1160   82.2874   10.8583 C.ar    1  UNL1        0.0114
     16 C          62.5055   82.8144   12.1230 C.ar    1  UNL1        0.0578
     17 CL         61.9877   81.8617   13.1595 Cl      1  UNL1       -0.0822
     18 C          62.4127   84.2940   12.3512 C.ar    1  UNL1        0.0144
     19 C          63.5758   90.0575   13.3933 C.3     1  UNL1        0.0419
     20 C          63.6957   90.6549   14.7639 C.3     1  UNL1        0.0064
     21 C          64.2208   91.3998   13.5726 C.3     1  UNL1        0.0064
     22 N          58.4218   88.9863    7.2315 N.pl3   1  UNL1       -0.3028
     23 H          57.5058   88.9776    7.5923 H       1  UNL1        0.1496
     24 O          62.6230   91.2627    3.9770 O.2     1  UNL1       -0.2677
     25 C          61.2410   91.8086    3.7721 C.2     1  UNL1        0.2730
     26 N          60.0953   91.2712    4.5775 N.am    1  UNL1       -0.2727
     27 C          58.6659   91.7163    4.4832 C.3     1  UNL1        0.0956
     28 C          57.8651   90.9145    5.4660 C.3     1  UNL1        0.0428
     29 C          58.7994   89.9739    6.1676 C.3     1  UNL1        0.0932
     30 C          60.1778   90.1943    5.6184 C.3     1  UNL1        0.1133
     31 C          61.0047   92.8918    2.7619 C.ar    1  UNL1        0.1643
     32 N          60.1402   94.1026    2.9532 N.ar    1  UNL1       -0.2322
     33 C          60.1926   94.9136    1.6924 C.ar    1  UNL1        0.1066
     34 C          61.0896   94.2041    0.7219 C.ar    1  UNL1        0.0577
     35 S          61.5915   92.9546    1.3828 S.2     1  UNL1       -0.0614
@<TRIPOS>BOND
     1    24    25    2
     2    25    31    1
     3    31    32   ar
     4    32    33   ar
     5    33    34   ar
     6    34    35   ar
     7    25    26   am
     8    26    27    1
     9    27    28    1
    10    28    29    1
    11    29    22    1
    12    22     1    1
    13     1     2   ar
    14     2     3   ar
    15     3     4   ar
    16     4     5   ar
    17     5     7    1
    18     7     8   ar
    19     8     9   ar
    20     9    19    1
    21    19    20    1
    22    20    21    1
    23     9    10   ar
    24    10    11   ar
    25    11    12    1
    26    12    13   ar
    27    13    14   ar
    28    14    15   ar
    29    15    16   ar
    30    16    17    1
    31    16    18   ar
    32     5     6   ar
    33    29    30    1
    34    35    31   ar
    35    30    26    1
    36     6     1   ar
    37    11     7   ar
    38    18    12   ar
    39    21    19    1
    40    22    23    1
