@<TRIPOS>MOLECULE
*****
 40 44 0 0 0
SMALL
GASTEIGER

@<TRIPOS>ATOM
      1 C          63.8249   88.3128   14.5463 C.2     1  UNL1        0.2528
      2 O          63.9648   87.9093   13.1085 O.2     1  UNL1       -0.2696
      3 N          63.3840   87.3070   15.5681 N.am    1  UNL1       -0.2486
      4 C          63.2441   87.7105   17.0060 C.3     1  UNL1        0.1458
      5 C          62.8032   86.7047   18.0277 C.3     1  UNL1        0.2272
      6 O          62.5023   85.2953   17.6116 O.3     1  UNL1       -0.4723
      7 C          62.6422   84.8918   16.1737 C.ar    1  UNL1        0.1537
      8 C          62.3413   83.4825   15.7575 C.ar    1  UNL1        0.0574
      9 C          62.4812   83.0789   14.3196 C.ar    1  UNL1        0.0888
     10 N          62.1803   81.6696   13.9034 N.ar    1  UNL1       -0.2238
     11 C          62.3202   81.2660   12.4656 C.ar    1  UNL1        0.2000
     12 N          62.7611   82.2719   11.4438 N.ar    1  UNL1       -0.2089
     13 C          63.0620   83.6812   11.8599 C.ar    1  UNL1        0.1353
     14 C          62.9221   84.0848   13.2979 C.ar    1  UNL1        0.0509
     15 C          63.2230   85.4941   13.7140 C.ar    1  UNL1        0.0223
     16 C          63.0831   85.8977   15.1520 C.ar    1  UNL1        0.0885
     17 C          65.1879   90.5044   14.2483 C.2     1  UNL1       -0.0041
     18 C          64.1258   89.7221   14.9625 C.2     1  UNL1        0.0551
     19 C          65.4888   91.9138   14.6645 C.3     1  UNL1        0.0991
     20 C          68.0417   92.3767   14.5285 C.3     1  UNL1        0.0899
     21 N          66.6454   92.6462   14.0514 N.3     1  UNL1       -0.2665
     22 C          66.4056   93.6481   12.9610 C.3     1  UNL1        0.0899
     23 N          63.5029   84.6870   10.8382 N.pl3   1  UNL1       -0.2978
     24 H          64.4442   84.7171   10.5514 H       1  UNL1        0.1536
     25 C          62.5096   85.6469   10.2534 C.ar    1  UNL1        0.0504
     26 C          62.3674   85.7649    8.7649 C.ar    1  UNL1        0.0178
     27 C          61.3741   86.7247    8.1801 C.ar    1  UNL1        0.0391
     28 C          60.5230   87.5667    9.0839 C.ar    1  UNL1        0.1496
     29 C          60.6652   87.4487   10.5725 C.ar    1  UNL1        0.0928
     30 CL         59.8142   88.2905   11.4763 Cl      1  UNL1       -0.0790
     31 C          61.6586   86.4887   11.1572 C.ar    1  UNL1        0.0291
     32 O          59.5297   88.5265    8.4992 O.3     1  UNL1       -0.4698
     33 C          59.1327   88.4094    7.0574 C.3     1  UNL1        0.2321
     34 C          59.0380   89.6388    6.2033 C.ar    1  UNL1        0.0234
     35 C          60.2844   90.2722    5.6598 C.ar    1  UNL1       -0.0005
     36 C          60.1897   91.5017    4.8057 C.ar    1  UNL1        0.0021
     37 C          58.8487   92.0976    4.4950 C.ar    1  UNL1        0.0296
     38 C          57.6024   91.4641    5.0384 C.ar    1  UNL1        0.1399
     39 F          56.2613   92.0601    4.7276 F       1  UNL1       -0.2042
     40 C          57.6970   90.2347    5.8925 C.ar    1  UNL1        0.0289
@<TRIPOS>BOND
     1    20    21    1
     2    21    22    1
     3    21    19    1
     4    19    17    1
     5    17    18    2
     6    18     1    1
     7     1     2    2
     8     1     3   am
     9     3     4    1
    10     4     5    1
    11     5     6    1
    12     6     7    1
    13     7     8   ar
    14     8     9   ar
    15     9    10   ar
    16    10    11   ar
    17    11    12   ar
    18    12    13   ar
    19    13    23    1
    20    23    25    1
    21    25    26   ar
    22    26    27   ar
    23    27    28   ar
    24    28    32    1
    25    32    33    1
    26    33    34    1
    27    34    35   ar
    28    35    36   ar
    29    36    37   ar
    30    37    38   ar
    31    38    39    1
    32    38    40   ar
    33    28    29   ar
    34    29    30    1
    35    29    31   ar
    36    13    14   ar
    37    14    15   ar
    38    15    16   ar
    39    16     3    1
    40    16     7   ar
    41    14     9   ar
    42    31    25   ar
    43    40    34   ar
    44    23    24    1
@<TRIPOS>MOLECULE
*****
 40 44 0 0 0
SMALL
GASTEIGER

@<TRIPOS>ATOM
      1 C          63.8585   88.3192   14.3785 C.2     1  UNL1        0.2528
      2 O          64.1328   87.7137   13.0338 O.2     1  UNL1       -0.2696
      3 N          63.4278   87.4468   15.5201 N.am    1  UNL1       -0.2486
      4 C          63.1535   88.0523   16.8648 C.3     1  UNL1        0.1458
      5 C          62.7228   87.1799   18.0064 C.3     1  UNL1        0.2272
      6 O          62.5663   85.7020   17.8034 O.3     1  UNL1       -0.4723
      7 C          62.8406   85.0965   16.4588 C.ar    1  UNL1        0.1537
      8 C          62.6842   83.6185   16.2557 C.ar    1  UNL1        0.0574
      9 C          62.9584   83.0130   14.9111 C.ar    1  UNL1        0.0888
     10 N          62.8020   81.5350   14.7080 N.ar    1  UNL1       -0.2238
     11 C          63.0763   80.9295   13.3634 C.ar    1  UNL1        0.2000
     12 N          63.5070   81.8019   12.2218 N.ar    1  UNL1       -0.2089
     13 C          63.6634   83.2798   12.4247 C.ar    1  UNL1        0.1353
     14 C          63.3892   83.8854   13.7694 C.ar    1  UNL1        0.0509
     15 C          63.5456   85.3633   13.9724 C.ar    1  UNL1        0.0223
     16 C          63.2713   85.9689   15.3171 C.ar    1  UNL1        0.0885
     17 C          65.3818   90.4150   14.5718 C.2     1  UNL1       -0.0041
     18 C          64.0150   89.7971   14.5815 C.2     1  UNL1        0.0551
     19 C          65.5382   91.8930   14.7748 C.3     1  UNL1        0.0991
     20 C          66.3400   93.4259   12.8365 C.3     1  UNL1        0.0899
     21 N          66.6387   92.6338   14.0748 N.3     1  UNL1       -0.2665
     22 C          68.0379   92.5826   14.6131 C.3     1  UNL1        0.0899
     23 N          64.0942   84.1522   11.2831 N.pl3   1  UNL1       -0.2978
     24 H          65.0515   84.2614   11.0810 H       1  UNL1        0.1536
     25 C          63.0663   84.8583   10.4495 C.ar    1  UNL1        0.0504
     26 C          62.0395   85.7325   11.1063 C.ar    1  UNL1        0.0178
     27 C          61.0117   86.4386   10.2727 C.ar    1  UNL1        0.0391
     28 C          61.0107   86.2704    8.7821 C.ar    1  UNL1        0.1496
     29 C          62.0375   85.3963    8.1252 C.ar    1  UNL1        0.0928
     30 CL         62.0364   85.2281    6.6347 Cl      1  UNL1       -0.0790
     31 C          63.0653   84.6902    8.9589 C.ar    1  UNL1        0.0291
     32 O          59.9828   86.9765    7.9484 O.3     1  UNL1       -0.4698
     33 C          59.7505   88.4471    8.1309 C.3     1  UNL1        0.2321
     34 C          60.3337   89.1571    9.3165 C.ar    1  UNL1        0.0234
     35 C          59.5297   89.3014   10.5746 C.ar    1  UNL1       -0.0005
     36 C          60.1130   90.0114   11.7602 C.ar    1  UNL1        0.0021
     37 C          61.5003   90.5772   11.6878 C.ar    1  UNL1        0.0296
     38 C          62.3043   90.4329   10.4297 C.ar    1  UNL1        0.1399
     39 F          63.6917   90.9987   10.3573 F       1  UNL1       -0.2042
     40 C          61.7211   89.7229    9.2441 C.ar    1  UNL1        0.0289
@<TRIPOS>BOND
     1    20    21    1
     2    21    22    1
     3    21    19    1
     4    19    17    1
     5    17    18    2
     6    18     1    1
     7     1     2    2
     8     1     3   am
     9     3     4    1
    10     4     5    1
    11     5     6    1
    12     6     7    1
    13     7     8   ar
    14     8     9   ar
    15     9    10   ar
    16    10    11   ar
    17    11    12   ar
    18    12    13   ar
    19    13    23    1
    20    23    25    1
    21    25    26   ar
    22    26    27   ar
    23    27    28   ar
    24    28    32    1
    25    32    33    1
    26    33    34    1
    27    34    35   ar
    28    35    36   ar
    29    36    37   ar
    30    37    38   ar
    31    38    39    1
    32    38    40   ar
    33    28    29   ar
    34    29    30    1
    35    29    31   ar
    36    13    14   ar
    37    14    15   ar
    38    15    16   ar
    39    16     3    1
    40    16     7   ar
    41    14     9   ar
    42    31    25   ar
    43    40    34   ar
    44    23    24    1
@<TRIPOS>MOLECULE
*****
 40 44 0 0 0
SMALL
GASTEIGER

@<TRIPOS>ATOM
      1 C          61.3504   89.7438   12.0836 C.2     1  UNL1        0.2528
      2 O          61.3213   89.5258   13.5674 O.2     1  UNL1       -0.2696
      3 N          62.4375   90.5746   11.4688 N.am    1  UNL1       -0.2486
      4 C          62.4666   90.7926    9.9850 C.3     1  UNL1        0.1458
      5 C          63.5536   91.6234    9.3702 C.3     1  UNL1        0.2272
      6 O          64.6117   92.2362   10.2391 O.3     1  UNL1       -0.4723
      7 C          64.5826   92.0182   11.7228 C.ar    1  UNL1        0.1537
      8 C          65.6407   92.6310   12.5918 C.ar    1  UNL1        0.0574
      9 C          65.6116   92.4130   14.0756 C.ar    1  UNL1        0.0888
     10 N          66.6696   93.0258   14.9446 N.ar    1  UNL1       -0.2238
     11 C          66.6406   92.8078   16.4283 C.ar    1  UNL1        0.2000
     12 N          65.5535   91.9770   17.0432 N.ar    1  UNL1       -0.2089
     13 C          64.4955   91.3642   16.1743 C.ar    1  UNL1        0.1353
     14 C          64.5245   91.5822   14.6904 C.ar    1  UNL1        0.0509
     15 C          63.4665   90.9694   13.8215 C.ar    1  UNL1        0.0223
     16 C          63.4955   91.1874   12.3377 C.ar    1  UNL1        0.0885
     17 C          60.5619   87.8380   10.5038 C.2     1  UNL1       -0.0041
     18 C          60.2924   89.1310   11.2147 C.2     1  UNL1        0.0551
     19 C          59.5037   87.2252    9.6348 C.3     1  UNL1        0.0991
     20 C          60.1624   85.9785    7.4527 C.3     1  UNL1        0.0899
     21 N          59.6704   87.2153    8.1442 N.3     1  UNL1       -0.2665
     22 C          59.3452   88.4423    7.3449 C.3     1  UNL1        0.0899
     23 N          63.4084   90.5334   16.7891 N.pl3   1  UNL1       -0.2978
     24 H          62.6949   90.9654   17.3122 H       1  UNL1        0.1536
     25 C          63.4083   89.0446   16.6070 C.ar    1  UNL1        0.0504
     26 C          62.8086   88.1602   17.6598 C.ar    1  UNL1        0.0178
     27 C          62.8086   86.6714   17.4776 C.ar    1  UNL1        0.0391
     28 C          63.4083   86.0668   16.2427 C.ar    1  UNL1        0.1496
     29 C          64.0080   86.9511   15.1900 C.ar    1  UNL1        0.0928
     30 CL         64.6077   86.3466   13.9552 Cl      1  UNL1       -0.0790
     31 C          64.0080   88.4401   15.3722 C.ar    1  UNL1        0.0291
     32 O          63.4082   84.5779   16.0606 O.3     1  UNL1       -0.4698
     33 C          62.2537   83.9057   15.3785 C.3     1  UNL1        0.2321
     34 C          62.4993   82.9886   14.2173 C.ar    1  UNL1        0.0234
     35 C          62.0232   81.5671   14.2706 C.ar    1  UNL1       -0.0005
     36 C          62.2688   80.6499   13.1093 C.ar    1  UNL1        0.0021
     37 C          62.9905   81.1542   11.8948 C.ar    1  UNL1        0.0296
     38 C          63.4665   82.5756   11.8416 C.ar    1  UNL1        0.1399
     39 F          64.1882   83.0799   10.6271 F       1  UNL1       -0.2042
     40 C          63.2210   83.4928   13.0028 C.ar    1  UNL1        0.0289
@<TRIPOS>BOND
     1    20    21    1
     2    21    22    1
     3    21    19    1
     4    19    17    1
     5    17    18    2
     6    18     1    1
     7     1     2    2
     8     1     3   am
     9     3     4    1
    10     4     5    1
    11     5     6    1
    12     6     7    1
    13     7     8   ar
    14     8     9   ar
    15     9    10   ar
    16    10    11   ar
    17    11    12   ar
    18    12    13   ar
    19    13    23    1
    20    23    25    1
    21    25    26   ar
    22    26    27   ar
    23    27    28   ar
    24    28    32    1
    25    32    33    1
    26    33    34    1
    27    34    35   ar
    28    35    36   ar
    29    36    37   ar
    30    37    38   ar
    31    38    39    1
    32    38    40   ar
    33    28    29   ar
    34    29    30    1
    35    29    31   ar
    36    13    14   ar
    37    14    15   ar
    38    15    16   ar
    39    16     3    1
    40    16     7   ar
    41    14     9   ar
    42    31    25   ar
    43    40    34   ar
    44    23    24    1
@<TRIPOS>MOLECULE
*****
 40 44 0 0 0
SMALL
GASTEIGER

@<TRIPOS>ATOM
      1 C          61.5447   89.8540   12.0255 C.2     1  UNL1        0.2528
      2 O          61.5813   89.6195   13.5066 O.2     1  UNL1       -0.2696
      3 N          62.5773   90.7290   11.3789 N.am    1  UNL1       -0.2486
      4 C          62.5407   90.9635    9.8979 C.3     1  UNL1        0.1458
      5 C          63.5733   91.8385    9.2513 C.3     1  UNL1        0.2272
      6 O          64.6425   92.4791   10.0858 O.3     1  UNL1       -0.4723
      7 C          64.6792   92.2446   11.5668 C.ar    1  UNL1        0.1537
      8 C          65.7484   92.8851   12.4014 C.ar    1  UNL1        0.0574
      9 C          65.7851   92.6506   13.8825 C.ar    1  UNL1        0.0888
     10 N          66.8543   93.2912   14.7171 N.ar    1  UNL1       -0.2238
     11 C          66.8910   93.0567   16.1981 C.ar    1  UNL1        0.2000
     12 N          65.8584   92.1816   16.8447 N.ar    1  UNL1       -0.2089
     13 C          64.7891   91.5411   16.0102 C.ar    1  UNL1        0.1353
     14 C          64.7524   91.7756   14.5291 C.ar    1  UNL1        0.0509
     15 C          63.6832   91.1351   13.6946 C.ar    1  UNL1        0.0223
     16 C          63.6465   91.3696   12.2134 C.ar    1  UNL1        0.0885
     17 C          60.7156   87.8716   10.5652 C.2     1  UNL1       -0.0041
     18 C          60.4755   89.2135   11.1910 C.2     1  UNL1        0.0551
     19 C          59.6462   87.2311    9.7307 C.3     1  UNL1        0.0991
     20 C          59.4555   88.5226    7.4845 C.3     1  UNL1        0.0899
     21 N          59.7468   87.2566    8.2343 N.3     1  UNL1       -0.2665
     22 C          60.1385   86.0159    7.4877 C.3     1  UNL1        0.0899
     23 N          63.7565   90.6661   16.6568 N.pl3   1  UNL1       -0.2978
     24 H          63.1027   91.0554   17.2814 H       1  UNL1        0.1536
     25 C          63.7201   89.1980   16.3517 C.ar    1  UNL1        0.0504
     26 C          64.3972   88.6705   15.1216 C.ar    1  UNL1        0.0178
     27 C          64.3608   87.2024   14.8165 C.ar    1  UNL1        0.0391
     28 C          63.6472   86.2615   15.7416 C.ar    1  UNL1        0.1496
     29 C          62.9701   86.7890   16.9718 C.ar    1  UNL1        0.0928
     30 CL         62.2565   85.8482   17.8968 Cl      1  UNL1       -0.0790
     31 C          63.0065   88.2572   17.2768 C.ar    1  UNL1        0.0291
     32 O          63.6108   84.7934   15.4365 O.3     1  UNL1       -0.4698
     33 C          62.6266   84.2589   14.4388 C.3     1  UNL1        0.2321
     34 C          63.0645   83.9714   13.0332 C.ar    1  UNL1        0.0234
     35 C          63.9001   82.7604   12.7409 C.ar    1  UNL1       -0.0005
     36 C          64.3381   82.4730   11.3353 C.ar    1  UNL1        0.0021
     37 C          63.9404   83.3964   10.2221 C.ar    1  UNL1        0.0296
     38 C          63.1048   84.6073   10.5145 C.ar    1  UNL1        0.1399
     39 F          62.7072   85.5308    9.4013 F       1  UNL1       -0.2042
     40 C          62.6669   84.8948   11.9200 C.ar    1  UNL1        0.0289
@<TRIPOS>BOND
     1    20    21    1
     2    21    22    1
     3    21    19    1
     4    19    17    1
     5    17    18    2
     6    18     1    1
     7     1     2    2
     8     1     3   am
     9     3     4    1
    10     4     5    1
    11     5     6    1
    12     6     7    1
    13     7     8   ar
    14     8     9   ar
    15     9    10   ar
    16    10    11   ar
    17    11    12   ar
    18    12    13   ar
    19    13    23    1
    20    23    25    1
    21    25    26   ar
    22    26    27   ar
    23    27    28   ar
    24    28    32    1
    25    32    33    1
    26    33    34    1
    27    34    35   ar
    28    35    36   ar
    29    36    37   ar
    30    37    38   ar
    31    38    39    1
    32    38    40   ar
    33    28    29   ar
    34    29    30    1
    35    29    31   ar
    36    13    14   ar
    37    14    15   ar
    38    15    16   ar
    39    16     3    1
    40    16     7   ar
    41    14     9   ar
    42    31    25   ar
    43    40    34   ar
    44    23    24    1
@<TRIPOS>MOLECULE
*****
 40 44 0 0 0
SMALL
GASTEIGER

@<TRIPOS>ATOM
      1 C          63.1864   85.3979   12.5431 C.2     1  UNL1        0.2528
      2 O          63.4800   86.6957   11.8506 O.2     1  UNL1       -0.2696
      3 N          63.0206   85.3638   14.0335 N.am    1  UNL1       -0.2486
      4 C          62.7270   84.0661   14.7260 C.3     1  UNL1        0.1458
      5 C          62.5612   84.0320   16.2165 C.3     1  UNL1        0.2272
      6 O          62.6891   85.2957   17.0144 O.3     1  UNL1       -0.4723
      7 C          62.9827   86.5934   16.3219 C.ar    1  UNL1        0.1537
      8 C          63.1107   87.8572   17.1198 C.ar    1  UNL1        0.0574
      9 C          63.4043   89.1549   16.4273 C.ar    1  UNL1        0.0888
     10 N          63.5322   90.4187   17.2253 N.ar    1  UNL1       -0.2238
     11 C          63.8259   91.7164   16.5328 C.ar    1  UNL1        0.2000
     12 N          63.9916   91.7505   15.0424 N.ar    1  UNL1       -0.2089
     13 C          63.8638   90.4868   14.2444 C.ar    1  UNL1        0.1353
     14 C          63.5701   89.1890   14.9369 C.ar    1  UNL1        0.0509
     15 C          63.4422   87.9253   14.1390 C.ar    1  UNL1        0.0223
     16 C          63.1485   86.6275   14.8315 C.ar    1  UNL1        0.0885
     17 C          64.2879   83.3829   11.3281 C.2     1  UNL1       -0.0041
     18 C          63.0585   84.1343   11.7452 C.2     1  UNL1        0.0551
     19 C          64.1600   82.1192   10.5302 C.3     1  UNL1        0.0991
     20 C          62.8657   80.9651   12.4648 C.3     1  UNL1        0.0899
     21 N          63.2876   81.0042   11.0259 N.3     1  UNL1       -0.2665
     22 C          62.8371   79.9283   10.0827 C.3     1  UNL1        0.0899
     23 N          64.0295   90.5209   12.7540 N.pl3   1  UNL1       -0.2978
     24 H          64.8743   90.8374   12.3598 H       1  UNL1        0.1536
     25 C          62.9082   90.0729   11.8642 C.ar    1  UNL1        0.0504
     26 C          63.1321   89.9339   10.3876 C.ar    1  UNL1        0.0178
     27 C          62.0108   89.4859    9.4978 C.ar    1  UNL1        0.0391
     28 C          60.6653   89.1768   10.0847 C.ar    1  UNL1        0.1496
     29 C          60.4414   89.3157   11.5613 C.ar    1  UNL1        0.0928
     30 CL         59.0960   89.0066   12.1482 Cl      1  UNL1       -0.0790
     31 C          61.5628   89.7638   12.4511 C.ar    1  UNL1        0.0291
     32 O          59.5440   88.7287    9.1949 O.3     1  UNL1       -0.4698
     33 C          59.3418   87.2679    8.9210 C.3     1  UNL1        0.2321
     34 C          60.4747   86.4405    8.3902 C.ar    1  UNL1        0.0234
     35 C          61.7784   86.3910    9.1305 C.ar    1  UNL1       -0.0005
     36 C          62.9114   85.5635    8.5997 C.ar    1  UNL1        0.0021
     37 C          62.7407   84.7856    7.3286 C.ar    1  UNL1        0.0296
     38 C          61.4370   84.8351    6.5883 C.ar    1  UNL1        0.1399
     39 F          61.2664   84.0571    5.3172 F       1  UNL1       -0.2042
     40 C          60.3041   85.6625    7.1191 C.ar    1  UNL1        0.0289
@<TRIPOS>BOND
     1    20    21    1
     2    21    22    1
     3    21    19    1
     4    19    17    1
     5    17    18    2
     6    18     1    1
     7     1     2    2
     8     1     3   am
     9     3     4    1
    10     4     5    1
    11     5     6    1
    12     6     7    1
    13     7     8   ar
    14     8     9   ar
    15     9    10   ar
    16    10    11   ar
    17    11    12   ar
    18    12    13   ar
    19    13    23    1
    20    23    25    1
    21    25    26   ar
    22    26    27   ar
    23    27    28   ar
    24    28    32    1
    25    32    33    1
    26    33    34    1
    27    34    35   ar
    28    35    36   ar
    29    36    37   ar
    30    37    38   ar
    31    38    39    1
    32    38    40   ar
    33    28    29   ar
    34    29    30    1
    35    29    31   ar
    36    13    14   ar
    37    14    15   ar
    38    15    16   ar
    39    16     3    1
    40    16     7   ar
    41    14     9   ar
    42    31    25   ar
    43    40    34   ar
    44    23    24    1
@<TRIPOS>MOLECULE
*****
 40 44 0 0 0
SMALL
GASTEIGER

@<TRIPOS>ATOM
      1 C          61.6362   89.9097   12.0359 C.2     1  UNL1        0.2528
      2 O          61.6672   89.6875   13.5190 O.2     1  UNL1       -0.2696
      3 N          62.6713   90.7794   11.3861 N.am    1  UNL1       -0.2486
      4 C          62.6403   91.0016    9.9030 C.3     1  UNL1        0.1458
      5 C          63.6754   91.8713    9.2531 C.3     1  UNL1        0.2272
      6 O          64.7414   92.5188   10.0863 O.3     1  UNL1       -0.4723
      7 C          64.7723   92.2966   11.5694 C.ar    1  UNL1        0.1537
      8 C          65.8384   92.9441   12.4028 C.ar    1  UNL1        0.0574
      9 C          65.8693   92.7219   13.8859 C.ar    1  UNL1        0.0888
     10 N          66.9353   93.3694   14.7192 N.ar    1  UNL1       -0.2238
     11 C          66.9663   93.1472   16.2023 C.ar    1  UNL1        0.2000
     12 N          65.9312   92.2776   16.8521 N.ar    1  UNL1       -0.2089
     13 C          64.8652   91.6301   16.0189 C.ar    1  UNL1        0.1353
     14 C          64.8343   91.8522   14.5357 C.ar    1  UNL1        0.0509
     15 C          63.7683   91.2047   13.7025 C.ar    1  UNL1        0.0223
     16 C          63.7373   91.4269   12.2193 C.ar    1  UNL1        0.0885
     17 C          60.7958   87.8962   10.6255 C.2     1  UNL1       -0.0041
     18 C          60.5702   89.2622   11.2027 C.2     1  UNL1        0.0551
     19 C          59.7297   87.2487    9.7922 C.3     1  UNL1        0.0991
     20 C          59.3221   88.2974    7.4504 C.3     1  UNL1        0.0899
     21 N          59.8749   87.1920    8.3003 N.3     1  UNL1       -0.2665
     22 C          60.5731   86.0298    7.6584 C.3     1  UNL1        0.0899
     23 N          63.8302   90.7604   16.6688 N.pl3   1  UNL1       -0.2978
     24 H          63.1865   91.1513   17.3029 H       1  UNL1        0.1536
     25 C          63.7758   89.2951   16.3524 C.ar    1  UNL1        0.0504
     26 C          64.4640   88.7659   15.1292 C.ar    1  UNL1        0.0178
     27 C          64.4097   87.3007   14.8129 C.ar    1  UNL1        0.0391
     28 C          63.6670   86.3646   15.7198 C.ar    1  UNL1        0.1496
     29 C          62.9788   86.8939   16.9430 C.ar    1  UNL1        0.0928
     30 CL         62.2362   85.9579   17.8498 Cl      1  UNL1       -0.0790
     31 C          63.0332   88.3592   17.2593 C.ar    1  UNL1        0.0291
     32 O          63.6126   84.8994   15.4034 O.3     1  UNL1       -0.4698
     33 C          63.1136   84.4389   14.0660 C.3     1  UNL1        0.2321
     34 C          62.8295   82.9848   13.8315 C.ar    1  UNL1        0.0234
     35 C          63.8522   82.1203   13.1558 C.ar    1  UNL1       -0.0005
     36 C          63.5680   80.6661   12.9214 C.ar    1  UNL1        0.0021
     37 C          62.2612   80.0767   13.3625 C.ar    1  UNL1        0.0296
     38 C          61.2385   80.9413   14.0382 C.ar    1  UNL1        0.1399
     39 F          59.9316   80.3518   14.4794 F       1  UNL1       -0.2042
     40 C          61.5226   82.3953   14.2727 C.ar    1  UNL1        0.0289
@<TRIPOS>BOND
     1    20    21    1
     2    21    22    1
     3    21    19    1
     4    19    17    1
     5    17    18    2
     6    18     1    1
     7     1     2    2
     8     1     3   am
     9     3     4    1
    10     4     5    1
    11     5     6    1
    12     6     7    1
    13     7     8   ar
    14     8     9   ar
    15     9    10   ar
    16    10    11   ar
    17    11    12   ar
    18    12    13   ar
    19    13    23    1
    20    23    25    1
    21    25    26   ar
    22    26    27   ar
    23    27    28   ar
    24    28    32    1
    25    32    33    1
    26    33    34    1
    27    34    35   ar
    28    35    36   ar
    29    36    37   ar
    30    37    38   ar
    31    38    39    1
    32    38    40   ar
    33    28    29   ar
    34    29    30    1
    35    29    31   ar
    36    13    14   ar
    37    14    15   ar
    38    15    16   ar
    39    16     3    1
    40    16     7   ar
    41    14     9   ar
    42    31    25   ar
    43    40    34   ar
    44    23    24    1
@<TRIPOS>MOLECULE
*****
 40 44 0 0 0
SMALL
GASTEIGER

@<TRIPOS>ATOM
      1 C          63.1470   85.0442   11.0961 C.2     1  UNL1        0.2528
      2 O          62.9643   86.5187   11.3017 O.2     1  UNL1       -0.2696
      3 N          63.3365   84.1399   12.2778 N.am    1  UNL1       -0.2486
      4 C          63.5191   82.6654   12.0722 C.3     1  UNL1        0.1458
      5 C          63.7086   81.7611   13.2539 C.3     1  UNL1        0.2272
      6 O          63.7154   82.3314   14.6412 O.3     1  UNL1       -0.4723
      7 C          63.5328   83.8059   14.8468 C.ar    1  UNL1        0.1537
      8 C          63.5396   84.3763   16.2342 C.ar    1  UNL1        0.0574
      9 C          63.3570   85.8508   16.4398 C.ar    1  UNL1        0.0888
     10 N          63.3638   86.4212   17.8272 N.ar    1  UNL1       -0.2238
     11 C          63.1812   87.8957   18.0328 C.ar    1  UNL1        0.2000
     12 N          62.9917   88.8000   16.8511 N.ar    1  UNL1       -0.2089
     13 C          62.9848   88.2297   15.4638 C.ar    1  UNL1        0.1353
     14 C          63.1675   86.7551   15.2581 C.ar    1  UNL1        0.0509
     15 C          63.1606   86.1848   13.8708 C.ar    1  UNL1        0.0223
     16 C          63.3433   84.7102   13.6651 C.ar    1  UNL1        0.0885
     17 C          62.9585   85.3792    8.5266 C.2     1  UNL1       -0.0041
     18 C          63.1401   84.4739    9.7088 C.2     1  UNL1        0.0551
     19 C          62.9517   84.8088    7.1393 C.3     1  UNL1        0.0991
     20 C          61.6434   84.0733    5.0186 C.3     1  UNL1        0.0899
     21 N          61.6676   84.7276    6.3681 N.3     1  UNL1       -0.2665
     22 C          60.4078   85.3006    6.9466 C.3     1  UNL1        0.0899
     23 N          62.7954   89.1340   14.2821 N.pl3   1  UNL1       -0.2978
     24 H          62.0239   89.0070   13.6838 H       1  UNL1        0.1536
     25 C          63.7812   90.2317   14.0120 C.ar    1  UNL1        0.0504
     26 C          63.9096   90.8013   12.6303 C.ar    1  UNL1        0.0178
     27 C          64.8955   91.8990   12.3602 C.ar    1  UNL1        0.0391
     28 C          65.7530   92.4272   13.4719 C.ar    1  UNL1        0.1496
     29 C          65.6247   91.8576   14.8536 C.ar    1  UNL1        0.0928
     30 CL         66.4822   92.3858   15.9652 Cl      1  UNL1       -0.0790
     31 C          64.6387   90.7598   15.1236 C.ar    1  UNL1        0.0291
     32 O          66.7389   93.5249   13.2018 O.3     1  UNL1       -0.4698
     33 C          66.3321   94.7135   12.3821 C.3     1  UNL1        0.2321
     34 C          66.7059   94.7874   10.9313 C.ar    1  UNL1        0.0234
     35 C          66.3660   96.0094   10.1306 C.ar    1  UNL1       -0.0005
     36 C          66.7398   96.0833    8.6797 C.ar    1  UNL1        0.0021
     37 C          67.4534   94.9351    8.0297 C.ar    1  UNL1        0.0296
     38 C          67.7933   93.7131    8.8304 C.ar    1  UNL1        0.1399
     39 F          68.5069   92.5650    8.1803 F       1  UNL1       -0.2042
     40 C          67.4195   93.6392   10.2812 C.ar    1  UNL1        0.0289
@<TRIPOS>BOND
     1    20    21    1
     2    21    22    1
     3    21    19    1
     4    19    17    1
     5    17    18    2
     6    18     1    1
     7     1     2    2
     8     1     3   am
     9     3     4    1
    10     4     5    1
    11     5     6    1
    12     6     7    1
    13     7     8   ar
    14     8     9   ar
    15     9    10   ar
    16    10    11   ar
    17    11    12   ar
    18    12    13   ar
    19    13    23    1
    20    23    25    1
    21    25    26   ar
    22    26    27   ar
    23    27    28   ar
    24    28    32    1
    25    32    33    1
    26    33    34    1
    27    34    35   ar
    28    35    36   ar
    29    36    37   ar
    30    37    38   ar
    31    38    39    1
    32    38    40   ar
    33    28    29   ar
    34    29    30    1
    35    29    31   ar
    36    13    14   ar
    37    14    15   ar
    38    15    16   ar
    39    16     3    1
    40    16     7   ar
    41    14     9   ar
    42    31    25   ar
    43    40    34   ar
    44    23    24    1
@<TRIPOS>MOLECULE
*****
 40 44 0 0 0
SMALL
GASTEIGER

@<TRIPOS>ATOM
      1 C          44.7397   75.0293   17.2195 C.2     1  UNL1        0.2528
      2 O          43.8484   76.1588   16.7956 O.2     1  UNL1       -0.2696
      3 N          45.9705   75.3087   18.0301 N.am    1  UNL1       -0.2486
      4 C          46.8617   74.1791   18.4540 C.3     1  UNL1        0.1458
      5 C          48.0925   74.4585   19.2646 C.3     1  UNL1        0.2272
      6 O          48.4321   75.8674   19.6512 O.3     1  UNL1       -0.4723
      7 C          47.5409   76.9970   19.2273 C.ar    1  UNL1        0.1537
      8 C          47.8805   78.4060   19.6139 C.ar    1  UNL1        0.0574
      9 C          46.9892   79.5356   19.1900 C.ar    1  UNL1        0.0888
     10 N          47.3288   80.9446   19.5766 N.ar    1  UNL1       -0.2238
     11 C          46.4375   82.0741   19.1527 C.ar    1  UNL1        0.2000
     12 N          45.2067   81.7948   18.3421 N.ar    1  UNL1       -0.2089
     13 C          44.8671   80.3858   17.9555 C.ar    1  UNL1        0.1353
     14 C          45.7584   79.2562   18.3794 C.ar    1  UNL1        0.0509
     15 C          45.4188   77.8472   17.9928 C.ar    1  UNL1        0.0223
     16 C          46.3101   76.7176   18.4167 C.ar    1  UNL1        0.0885
     17 C          45.0299   73.0031   15.6195 C.2     1  UNL1       -0.0041
     18 C          44.4001   73.6203   16.8329 C.2     1  UNL1        0.0551
     19 C          44.6902   71.5940   15.2328 C.3     1  UNL1        0.0991
     20 C          46.2354   70.1413   16.7335 C.3     1  UNL1        0.0899
     21 N          45.7164   70.5092   15.3751 N.3     1  UNL1       -0.2665
     22 C          46.2235   69.7923   14.1590 C.3     1  UNL1        0.0899
     23 N          43.6363   80.1064   17.1449 N.pl3   1  UNL1       -0.2978
     24 H          42.7969   79.8568   17.5946 H       1  UNL1        0.1536
     25 C          43.6845   80.2074   15.6491 C.ar    1  UNL1        0.0504
     26 C          43.6396   78.9638   14.8116 C.ar    1  UNL1        0.0178
     27 C          43.6878   79.0648   13.3158 C.ar    1  UNL1        0.0391
     28 C          43.7807   80.4094   12.6574 C.ar    1  UNL1        0.1496
     29 C          43.8255   81.6530   13.4949 C.ar    1  UNL1        0.0928
     30 CL         43.9185   82.9976   12.8366 Cl      1  UNL1       -0.0790
     31 C          43.7774   81.5520   14.9908 C.ar    1  UNL1        0.0291
     32 O          43.8288   80.5104   11.1616 O.3     1  UNL1       -0.4698
     33 C          44.3442   79.3601   10.3485 C.3     1  UNL1        0.2321
     34 C          44.6281   79.5425    8.8869 C.ar    1  UNL1        0.0234
     35 C          45.3887   78.4916    8.1338 C.ar    1  UNL1       -0.0005
     36 C          45.6727   78.6741    6.6722 C.ar    1  UNL1        0.0021
     37 C          45.1961   79.9073    5.9639 C.ar    1  UNL1        0.0296
     38 C          44.4355   80.9582    6.7170 C.ar    1  UNL1        0.1399
     39 F          43.9589   82.1915    6.0085 F       1  UNL1       -0.2042
     40 C          44.1515   80.7758    8.1785 C.ar    1  UNL1        0.0289
@<TRIPOS>BOND
     1    20    21    1
     2    21    22    1
     3    21    19    1
     4    19    17    1
     5    17    18    2
     6    18     1    1
     7     1     2    2
     8     1     3   am
     9     3     4    1
    10     4     5    1
    11     5     6    1
    12     6     7    1
    13     7     8   ar
    14     8     9   ar
    15     9    10   ar
    16    10    11   ar
    17    11    12   ar
    18    12    13   ar
    19    13    23    1
    20    23    25    1
    21    25    26   ar
    22    26    27   ar
    23    27    28   ar
    24    28    32    1
    25    32    33    1
    26    33    34    1
    27    34    35   ar
    28    35    36   ar
    29    36    37   ar
    30    37    38   ar
    31    38    39    1
    32    38    40   ar
    33    28    29   ar
    34    29    30    1
    35    29    31   ar
    36    13    14   ar
    37    14    15   ar
    38    15    16   ar
    39    16     3    1
    40    16     7   ar
    41    14     9   ar
    42    31    25   ar
    43    40    34   ar
    44    23    24    1
@<TRIPOS>MOLECULE
*****
 40 44 0 0 0
SMALL
GASTEIGER

@<TRIPOS>ATOM
      1 C          63.1495   90.5451   12.1111 C.2     1  UNL1        0.2528
      2 O          62.3999   91.1572   10.9652 O.2     1  UNL1       -0.2696
      3 N          63.1568   89.0561   12.2927 N.am    1  UNL1       -0.2486
      4 C          63.9063   88.4440   13.4387 C.3     1  UNL1        0.1458
      5 C          63.9136   86.9550   13.6203 C.3     1  UNL1        0.2272
      6 O          63.1713   86.0782   12.6559 O.3     1  UNL1       -0.4723
      7 C          62.4217   86.6904   11.5099 C.ar    1  UNL1        0.1537
      8 C          61.6793   85.8136   10.5454 C.ar    1  UNL1        0.0574
      9 C          60.9297   86.4258    9.3994 C.ar    1  UNL1        0.0888
     10 N          60.1873   85.5490    8.4349 N.ar    1  UNL1       -0.2238
     11 C          59.4378   86.1611    7.2889 C.ar    1  UNL1        0.2000
     12 N          59.4305   87.6501    7.1074 N.ar    1  UNL1       -0.2089
     13 C          60.1728   88.5269    8.0718 C.ar    1  UNL1        0.1353
     14 C          60.9225   87.9147    9.2178 C.ar    1  UNL1        0.0509
     15 C          61.6648   88.7915   10.1822 C.ar    1  UNL1        0.0223
     16 C          62.4144   88.1793   11.3283 C.ar    1  UNL1        0.0885
     17 C          65.2297   91.9862   12.6992 C.2     1  UNL1       -0.0041
     18 C          63.8918   91.4219   13.0756 C.2     1  UNL1        0.0551
     19 C          65.9721   92.8630   13.6637 C.3     1  UNL1        0.0991
     20 C          68.3289   91.7852   13.4803 C.3     1  UNL1        0.0899
     21 N          67.2271   92.3650   14.3169 N.3     1  UNL1       -0.2665
     22 C          67.3805   92.4467   15.8069 C.3     1  UNL1        0.0899
     23 N          60.1656   90.0158    7.8902 N.pl3   1  UNL1       -0.2978
     24 H          60.3933   90.6049    8.6454 H       1  UNL1        0.1536
     25 C          59.8115   90.6072    6.5580 C.ar    1  UNL1        0.0504
     26 C          60.8918   90.9222    5.5662 C.ar    1  UNL1        0.0178
     27 C          60.5377   91.5136    4.2340 C.ar    1  UNL1        0.0391
     28 C          59.1032   91.7900    3.8935 C.ar    1  UNL1        0.1496
     29 C          58.0228   91.4750    4.8853 C.ar    1  UNL1        0.0928
     30 CL         56.5884   91.7513    4.5449 Cl      1  UNL1       -0.0790
     31 C          58.3770   90.8836    6.2176 C.ar    1  UNL1        0.0291
     32 O          58.7491   92.3813    2.5613 O.3     1  UNL1       -0.4698
     33 C          59.7614   93.1920    1.8076 C.3     1  UNL1        0.2321
     34 C          59.6913   93.2764    0.3116 C.ar    1  UNL1        0.0234
     35 C          60.9538   93.3425   -0.4958 C.ar    1  UNL1       -0.0005
     36 C          60.8837   93.4269   -1.9918 C.ar    1  UNL1        0.0021
     37 C          59.5512   93.4451   -2.6804 C.ar    1  UNL1        0.0296
     38 C          58.2888   93.3790   -1.8730 C.ar    1  UNL1        0.1399
     39 F          56.9563   93.3973   -2.5616 F       1  UNL1       -0.2042
     40 C          58.3588   93.2946   -0.3770 C.ar    1  UNL1        0.0289
@<TRIPOS>BOND
     1    20    21    1
     2    21    22    1
     3    21    19    1
     4    19    17    1
     5    17    18    2
     6    18     1    1
     7     1     2    2
     8     1     3   am
     9     3     4    1
    10     4     5    1
    11     5     6    1
    12     6     7    1
    13     7     8   ar
    14     8     9   ar
    15     9    10   ar
    16    10    11   ar
    17    11    12   ar
    18    12    13   ar
    19    13    23    1
    20    23    25    1
    21    25    26   ar
    22    26    27   ar
    23    27    28   ar
    24    28    32    1
    25    32    33    1
    26    33    34    1
    27    34    35   ar
    28    35    36   ar
    29    36    37   ar
    30    37    38   ar
    31    38    39    1
    32    38    40   ar
    33    28    29   ar
    34    29    30    1
    35    29    31   ar
    36    13    14   ar
    37    14    15   ar
    38    15    16   ar
    39    16     3    1
    40    16     7   ar
    41    14     9   ar
    42    31    25   ar
    43    40    34   ar
    44    23    24    1
