@<TRIPOS>MOLECULE
*****
 39 43 0 0 0
SMALL
GASTEIGER

@<TRIPOS>ATOM
      1 N          63.9578   86.7539   13.3984 N.am    1  UNL1       -0.2791
      2 C          63.9111   87.8696   14.3998 C.2     1  UNL1        0.2495
      3 O          63.3596   87.6226   15.7727 O.2     1  UNL1       -0.2698
      4 H          64.3198   86.9160   12.4973 H       1  UNL1        0.1552
      5 C          64.4160   89.2324   14.0284 C.ar    1  UNL1        0.0537
      6 C          65.4029   89.9336   14.9139 C.ar    1  UNL1        0.0043
      7 C          65.9078   91.2964   14.5424 C.ar    1  UNL1       -0.0022
      8 C          65.4257   91.9580   13.2855 C.ar    1  UNL1        0.0022
      9 C          64.4387   91.2567   12.3999 C.ar    1  UNL1       -0.0019
     10 C          63.9566   91.9182   11.1430 C.ar    1  UNL1       -0.0003
     11 C          62.9697   91.2170   10.2575 C.ar    1  UNL1       -0.0000
     12 C          62.4648   89.8542   10.6289 C.ar    1  UNL1        0.0000
     13 C          62.9469   89.1927   11.8859 C.ar    1  UNL1        0.0001
     14 C          63.9338   89.8939   12.7714 C.ar    1  UNL1        0.0041
     15 C          65.9306   93.3207   12.9141 C.3     1  UNL1        0.1556
     16 N          66.7081   93.5125   11.6458 N.ar    1  UNL1       -0.2257
     17 C          66.5626   94.6568   10.6869 C.ar    1  UNL1        0.1196
     18 C          67.5322   94.4452    9.5621 C.ar    1  UNL1        0.1441
     19 N          68.2770   93.1701    9.8259 N.ar    1  UNL1       -0.1271
     20 N          67.7676   92.5937   11.1137 N.ar    1  UNL1       -0.0634
     21 C          62.4432   82.6656   14.5127 C.ar    1  UNL1        0.2251
     22 C          62.9146   83.6075   15.5806 C.ar    1  UNL1        0.0590
     23 C          63.4195   84.9703   15.2092 C.ar    1  UNL1        0.0212
     24 C          63.4529   85.3911   13.7698 C.ar    1  UNL1        0.0732
     25 C          62.9815   84.4492   12.7018 C.ar    1  UNL1        0.1509
     26 N          62.4766   83.0864   13.0733 N.ar    1  UNL1       -0.2058
     27 C          63.0149   84.8700   11.2625 C.2     1  UNL1        0.2649
     28 O          63.8522   84.1090   10.2778 O.2     1  UNL1       -0.2684
     29 N          62.2109   86.0519   10.8079 N.am    1  UNL1       -0.2996
     30 H          61.6613   86.5514   11.4542 H       1  UNL1        0.1498
     31 C          62.2443   86.4728    9.3685 C.3     1  UNL1        0.0899
     32 C          61.0121   87.0331    8.7222 C.3     1  UNL1        0.0246
     33 C          60.0169   86.1123    8.0805 C.3     1  UNL1        0.0338
     34 C          58.7848   86.6726    7.4342 C.3     1  UNL1        0.1422
     35 O          58.5478   88.1538    7.4295 O.3     1  UNL1       -0.3538
     36 C          59.5429   89.0746    8.0711 C.3     1  UNL1        0.1422
     37 C          60.7752   88.5142    8.7175 C.3     1  UNL1        0.0338
     38 C          60.7825   80.7026   14.1400 C.3     1  UNL1        0.2542
     39 O          61.9383   81.3028   14.8841 O.3     1  UNL1       -0.4561
@<TRIPOS>BOND
     1    38    39    1
     2    39    21    1
     3    21    22   ar
     4    22    23   ar
     5    23    24   ar
     6    24     1    1
     7     1     2   am
     8     2     3    2
     9     2     5    1
    10     5     6   ar
    11     6     7   ar
    12     7     8   ar
    13     8    15    1
    14    15    16    1
    15    16    17   ar
    16    17    18   ar
    17    18    19   ar
    18    19    20   ar
    19     8     9   ar
    20     9    10   ar
    21    10    11   ar
    22    11    12   ar
    23    12    13   ar
    24    13    14   ar
    25    24    25   ar
    26    25    27    1
    27    27    28    2
    28    27    29   am
    29    29    31    1
    30    31    32    1
    31    32    33    1
    32    33    34    1
    33    34    35    1
    34    35    36    1
    35    36    37    1
    36    25    26   ar
    37    26    21   ar
    38    14     5   ar
    39    37    32    1
    40    20    16   ar
    41    14     9   ar
    42     1     4    1
    43    29    30    1
@<TRIPOS>MOLECULE
*****
 39 43 0 0 0
SMALL
GASTEIGER

@<TRIPOS>ATOM
      1 N          62.5537   84.3604   13.5499 N.am    1  UNL1       -0.2791
      2 C          63.8412   85.0568   13.8775 C.2     1  UNL1        0.2495
      3 O          65.1413   84.3150   13.7794 O.2     1  UNL1       -0.2698
      4 H          61.7005   84.8473   13.6143 H       1  UNL1        0.1552
      5 C          63.8287   86.4951   14.3031 C.ar    1  UNL1        0.0537
      6 C          64.1773   87.5717   13.3186 C.ar    1  UNL1        0.0043
      7 C          64.1648   89.0100   13.7442 C.ar    1  UNL1       -0.0022
      8 C          63.8037   89.3717   15.1544 C.ar    1  UNL1        0.0022
      9 C          63.4550   88.2951   16.1391 C.ar    1  UNL1       -0.0019
     10 C          63.0938   88.6568   17.5492 C.ar    1  UNL1       -0.0003
     11 C          62.7451   87.5802   18.5338 C.ar    1  UNL1       -0.0000
     12 C          62.7576   86.1420   18.1081 C.ar    1  UNL1        0.0000
     13 C          63.1188   85.7802   16.6980 C.ar    1  UNL1        0.0001
     14 C          63.4675   86.8568   15.7134 C.ar    1  UNL1        0.0041
     15 C          63.7911   90.8100   15.5801 C.3     1  UNL1        0.1556
     16 N          64.8044   91.7657   15.0234 N.ar    1  UNL1       -0.2257
     17 C          65.9462   92.3789   15.7786 C.ar    1  UNL1        0.1196
     18 C          66.7012   93.2682   14.8357 C.ar    1  UNL1        0.1441
     19 N          66.0259   93.2047   13.4977 N.ar    1  UNL1       -0.1271
     20 N          64.8536   92.2761   13.6138 N.ar    1  UNL1       -0.0634
     21 C          62.5912   80.0455   12.2730 C.ar    1  UNL1        0.2251
     22 C          62.2755   80.4042   13.6948 C.ar    1  UNL1        0.0590
     23 C          62.2630   81.8425   14.1205 C.ar    1  UNL1        0.0212
     24 C          62.5662   82.9221   13.1243 C.ar    1  UNL1        0.0732
     25 C          62.8820   82.5635   11.7024 C.ar    1  UNL1        0.1509
     26 N          62.8945   81.1252   11.2767 N.ar    1  UNL1       -0.2058
     27 C          63.1852   83.6431   10.7062 C.2     1  UNL1        0.2649
     28 O          64.4266   83.5630    9.8680 O.2     1  UNL1       -0.2684
     29 N          62.2471   84.8028   10.5483 N.am    1  UNL1       -0.2996
     30 H          61.4324   84.8553   11.0984 H       1  UNL1        0.1498
     31 C          62.5504   85.8825    9.5520 C.3     1  UNL1        0.0899
     32 C          61.4509   86.7720    9.0522 C.3     1  UNL1        0.0246
     33 C          60.4452   86.2433    8.0728 C.3     1  UNL1        0.0338
     34 C          59.3458   87.1329    7.5729 C.3     1  UNL1        0.1422
     35 O          59.2520   88.5511    8.0524 O.3     1  UNL1       -0.3538
     36 C          60.2577   89.0798    9.0317 C.3     1  UNL1        0.1422
     37 C          61.3572   88.1902    9.5316 C.3     1  UNL1        0.0338
     38 C          62.7393   78.2559   10.3955 C.3     1  UNL1        0.2542
     39 O          62.6037   78.6072   11.8474 O.3     1  UNL1       -0.4561
@<TRIPOS>BOND
     1    38    39    1
     2    39    21    1
     3    21    22   ar
     4    22    23   ar
     5    23    24   ar
     6    24     1    1
     7     1     2   am
     8     2     3    2
     9     2     5    1
    10     5     6   ar
    11     6     7   ar
    12     7     8   ar
    13     8    15    1
    14    15    16    1
    15    16    17   ar
    16    17    18   ar
    17    18    19   ar
    18    19    20   ar
    19     8     9   ar
    20     9    10   ar
    21    10    11   ar
    22    11    12   ar
    23    12    13   ar
    24    13    14   ar
    25    24    25   ar
    26    25    27    1
    27    27    28    2
    28    27    29   am
    29    29    31    1
    30    31    32    1
    31    32    33    1
    32    33    34    1
    33    34    35    1
    34    35    36    1
    35    36    37    1
    36    25    26   ar
    37    26    21   ar
    38    14     5   ar
    39    37    32    1
    40    20    16   ar
    41    14     9   ar
    42     1     4    1
    43    29    30    1
@<TRIPOS>MOLECULE
*****
 39 43 0 0 0
SMALL
GASTEIGER

@<TRIPOS>ATOM
      1 N          64.4986   88.3414   13.3628 N.am    1  UNL1       -0.2791
      2 C          63.9115   89.6627   13.7617 C.2     1  UNL1        0.2495
      3 O          62.7314   89.7105   14.6865 O.2     1  UNL1       -0.2698
      4 H          65.2732   88.3100   12.7558 H       1  UNL1        0.1552
      5 C          64.5043   90.9363   13.2359 C.ar    1  UNL1        0.0537
      6 C          64.1451   91.4197   11.8621 C.ar    1  UNL1        0.0043
      7 C          64.7379   92.6933   11.3363 C.ar    1  UNL1       -0.0022
      8 C          65.6900   93.4835   12.1842 C.ar    1  UNL1        0.0022
      9 C          66.0493   93.0001   13.5581 C.ar    1  UNL1       -0.0019
     10 C          67.0013   93.7904   14.4060 C.ar    1  UNL1       -0.0003
     11 C          67.3606   93.3070   15.7798 C.ar    1  UNL1       -0.0000
     12 C          66.7677   92.0334   16.3056 C.ar    1  UNL1        0.0000
     13 C          65.8157   91.2432   15.4576 C.ar    1  UNL1        0.0001
     14 C          65.4564   91.7266   14.0839 C.ar    1  UNL1        0.0041
     15 C          66.2828   94.7571   11.6584 C.3     1  UNL1        0.1556
     16 N          66.8257   94.8109   10.2612 N.ar    1  UNL1       -0.2257
     17 C          66.5014   95.8496    9.2286 C.ar    1  UNL1        0.1196
     18 C          67.2634   95.5161    7.9804 C.ar    1  UNL1        0.1441
     19 N          68.0586   94.2712    8.2415 N.ar    1  UNL1       -0.1271
     20 N          67.7880   93.8354    9.6510 N.ar    1  UNL1       -0.0634
     21 C          62.7201   84.5206   14.9402 C.ar    1  UNL1        0.2251
     22 C          63.5464   85.3908   15.8401 C.ar    1  UNL1        0.0590
     23 C          64.1392   86.6644   15.3143 C.ar    1  UNL1        0.0212
     24 C          63.9058   87.0678   13.8886 C.ar    1  UNL1        0.0732
     25 C          63.0795   86.1975   12.9886 C.ar    1  UNL1        0.1509
     26 N          62.4867   84.9239   13.5144 N.ar    1  UNL1       -0.2058
     27 C          62.8461   86.6008   11.5628 C.2     1  UNL1        0.2649
     28 O          62.7593   88.0534   11.1989 O.2     1  UNL1       -0.2684
     29 N          62.6995   85.5516   10.5010 N.am    1  UNL1       -0.2996
     30 H          62.7564   84.5982   10.7399 H       1  UNL1        0.1498
     31 C          62.4660   85.9549    9.0752 C.3     1  UNL1        0.0899
     32 C          61.2021   86.6674    8.6946 C.3     1  UNL1        0.0246
     33 C          60.1184   85.9329    7.9625 C.3     1  UNL1        0.0338
     34 C          58.8545   86.6453    7.5819 C.3     1  UNL1        0.1422
     35 O          58.6743   88.0924    7.9334 O.3     1  UNL1       -0.3538
     36 C          59.7580   88.8270    8.6655 C.3     1  UNL1        0.1422
     37 C          61.0220   88.1144    9.0461 C.3     1  UNL1        0.0338
     38 C          62.0028   82.0512   14.5690 C.3     1  UNL1        0.2542
     39 O          62.1273   83.2470   15.4660 O.3     1  UNL1       -0.4561
@<TRIPOS>BOND
     1    38    39    1
     2    39    21    1
     3    21    22   ar
     4    22    23   ar
     5    23    24   ar
     6    24     1    1
     7     1     2   am
     8     2     3    2
     9     2     5    1
    10     5     6   ar
    11     6     7   ar
    12     7     8   ar
    13     8    15    1
    14    15    16    1
    15    16    17   ar
    16    17    18   ar
    17    18    19   ar
    18    19    20   ar
    19     8     9   ar
    20     9    10   ar
    21    10    11   ar
    22    11    12   ar
    23    12    13   ar
    24    13    14   ar
    25    24    25   ar
    26    25    27    1
    27    27    28    2
    28    27    29   am
    29    29    31    1
    30    31    32    1
    31    32    33    1
    32    33    34    1
    33    34    35    1
    34    35    36    1
    35    36    37    1
    36    25    26   ar
    37    26    21   ar
    38    14     5   ar
    39    37    32    1
    40    20    16   ar
    41    14     9   ar
    42     1     4    1
    43    29    30    1
@<TRIPOS>MOLECULE
*****
 39 43 0 0 0
SMALL
GASTEIGER

@<TRIPOS>ATOM
      1 N          62.2607   88.6557   11.6659 N.am    1  UNL1       -0.2791
      2 C          63.0370   89.9192   11.4403 C.2     1  UNL1        0.2495
      3 O          63.1070   90.5216   10.0684 O.2     1  UNL1       -0.2698
      4 H          62.2148   88.2603   12.5663 H       1  UNL1        0.1552
      5 C          63.7433   90.5803   12.5867 C.ar    1  UNL1        0.0537
      6 C          63.5553   90.0632   13.9821 C.ar    1  UNL1        0.0043
      7 C          64.2615   90.7243   15.1284 C.ar    1  UNL1       -0.0022
      8 C          65.1559   91.9025   14.8794 C.ar    1  UNL1        0.0022
      9 C          65.3439   92.4196   13.4839 C.ar    1  UNL1       -0.0019
     10 C          66.2382   93.5978   13.2348 C.ar    1  UNL1       -0.0003
     11 C          66.4263   94.1148   11.8394 C.ar    1  UNL1       -0.0000
     12 C          65.7200   93.4537   10.6930 C.ar    1  UNL1        0.0000
     13 C          64.8257   92.2756   10.9421 C.ar    1  UNL1        0.0001
     14 C          64.6377   91.7585   12.3375 C.ar    1  UNL1        0.0041
     15 C          65.8621   92.5636   16.0257 C.3     1  UNL1        0.1556
     16 N          67.3315   92.8515   15.9358 N.ar    1  UNL1       -0.2257
     17 C          68.4015   91.8682   15.5639 C.ar    1  UNL1        0.1196
     18 C          69.7201   92.5823   15.6002 C.ar    1  UNL1        0.1441
     19 N          69.4650   94.0069   15.9945 N.ar    1  UNL1       -0.1271
     20 N          67.9888   94.1733   16.2019 N.ar    1  UNL1       -0.0634
     21 C          60.1419   86.6724    8.2269 C.ar    1  UNL1        0.2251
     22 C          60.0091   88.1516    8.4370 C.ar    1  UNL1        0.0590
     23 C          60.7154   88.8127    9.5833 C.ar    1  UNL1        0.0212
     24 C          61.5545   87.9946   10.5196 C.ar    1  UNL1        0.0732
     25 C          61.6873   86.5153   10.3095 C.ar    1  UNL1        0.1509
     26 N          60.9810   85.8541    9.1631 N.ar    1  UNL1       -0.2058
     27 C          62.5264   85.6971   11.2457 C.2     1  UNL1        0.2649
     28 O          62.7104   86.1380   12.6676 O.2     1  UNL1       -0.2684
     29 N          63.1814   84.4382   10.7601 N.am    1  UNL1       -0.2996
     30 H          63.0605   84.1488    9.8268 H       1  UNL1        0.1498
     31 C          64.0205   83.6200   11.6963 C.3     1  UNL1        0.0899
     32 C          63.3685   82.6392   12.6252 C.3     1  UNL1        0.0246
     33 C          62.9452   83.0731   13.9973 C.3     1  UNL1        0.0338
     34 C          62.2932   82.0923   14.9262 C.3     1  UNL1        0.1422
     35 O          62.0644   80.6776   14.4831 O.3     1  UNL1       -0.3538
     36 C          62.4876   80.2437   13.1110 C.3     1  UNL1        0.1422
     37 C          63.1397   81.2246   12.1821 C.3     1  UNL1        0.0338
     38 C          60.0905   84.8767    6.3500 C.3     1  UNL1        0.2542
     39 O          59.4356   86.0112    7.0805 O.3     1  UNL1       -0.4561
@<TRIPOS>BOND
     1    38    39    1
     2    39    21    1
     3    21    22   ar
     4    22    23   ar
     5    23    24   ar
     6    24     1    1
     7     1     2   am
     8     2     3    2
     9     2     5    1
    10     5     6   ar
    11     6     7   ar
    12     7     8   ar
    13     8    15    1
    14    15    16    1
    15    16    17   ar
    16    17    18   ar
    17    18    19   ar
    18    19    20   ar
    19     8     9   ar
    20     9    10   ar
    21    10    11   ar
    22    11    12   ar
    23    12    13   ar
    24    13    14   ar
    25    24    25   ar
    26    25    27    1
    27    27    28    2
    28    27    29   am
    29    29    31    1
    30    31    32    1
    31    32    33    1
    32    33    34    1
    33    34    35    1
    34    35    36    1
    35    36    37    1
    36    25    26   ar
    37    26    21   ar
    38    14     5   ar
    39    37    32    1
    40    20    16   ar
    41    14     9   ar
    42     1     4    1
    43    29    30    1
@<TRIPOS>MOLECULE
*****
 39 43 0 0 0
SMALL
GASTEIGER

@<TRIPOS>ATOM
      1 N          60.5100   87.1034    9.7481 N.am    1  UNL1       -0.2791
      2 C          61.9704   86.9178   10.0357 C.2     1  UNL1        0.2495
      3 O          62.9904   87.7266    9.2904 O.2     1  UNL1       -0.2698
      4 H          59.8406   86.5726   10.2372 H       1  UNL1        0.1552
      5 C          62.4108   85.9233   11.0687 C.ar    1  UNL1        0.0537
      6 C          62.1827   84.4579   10.8443 C.ar    1  UNL1        0.0043
      7 C          62.6231   83.4634   11.8772 C.ar    1  UNL1       -0.0022
      8 C          63.2917   83.9344   13.1347 C.ar    1  UNL1        0.0022
      9 C          63.5198   85.3999   13.3592 C.ar    1  UNL1       -0.0019
     10 C          64.1884   85.8708   14.6166 C.ar    1  UNL1       -0.0003
     11 C          64.4165   87.3362   14.8411 C.ar    1  UNL1       -0.0000
     12 C          63.9761   88.3307   13.8081 C.ar    1  UNL1        0.0000
     13 C          63.3075   87.8598   12.5507 C.ar    1  UNL1        0.0001
     14 C          63.0794   86.3943   12.3262 C.ar    1  UNL1        0.0041
     15 C          63.7321   82.9399   14.1677 C.3     1  UNL1        0.1556
     16 N          63.1142   81.5736   14.2048 N.ar    1  UNL1       -0.2257
     17 C          61.6461   81.2685   14.1645 C.ar    1  UNL1        0.1196
     18 C          61.4805   79.7788   14.2236 C.ar    1  UNL1        0.1441
     19 N          62.8463   79.1633   14.3005 N.ar    1  UNL1       -0.1271
     20 N          63.8559   80.2725   14.2889 N.ar    1  UNL1       -0.0634
     21 C          59.1888   90.0869    6.6491 C.ar    1  UNL1        0.2251
     22 C          59.0594   88.6172    6.3785 C.ar    1  UNL1        0.0590
     23 C          59.4999   87.6227    7.4114 C.ar    1  UNL1        0.0212
     24 C          60.0696   88.0979    8.7151 C.ar    1  UNL1        0.0732
     25 C          60.1989   89.5677    8.9858 C.ar    1  UNL1        0.1509
     26 N          59.7585   90.5621    7.9528 N.ar    1  UNL1       -0.2058
     27 C          60.7687   90.0429   10.2895 C.2     1  UNL1        0.2649
     28 O          59.9610   89.9260   11.5480 O.2     1  UNL1       -0.2684
     29 N          62.1461   90.6349   10.3345 N.am    1  UNL1       -0.2996
     30 H          62.6762   90.7116    9.5085 H       1  UNL1        0.1498
     31 C          62.7159   91.1102   11.6382 C.3     1  UNL1        0.0899
     32 C          64.1010   91.6837   11.6867 C.3     1  UNL1        0.0246
     33 C          64.8572   91.7096   12.9819 C.3     1  UNL1        0.0338
     34 C          66.2423   92.2832   13.0304 C.3     1  UNL1        0.1422
     35 O          66.8713   92.8310   11.7836 O.3     1  UNL1       -0.3538
     36 C          66.1152   92.8051   10.4884 C.3     1  UNL1        0.1422
     37 C          64.7300   92.2314   10.4400 C.3     1  UNL1        0.0338
     38 C          57.3087   91.1420    5.1992 C.3     1  UNL1        0.2542
     39 O          58.7483   91.0813    5.6161 O.3     1  UNL1       -0.4561
@<TRIPOS>BOND
     1    38    39    1
     2    39    21    1
     3    21    22   ar
     4    22    23   ar
     5    23    24   ar
     6    24     1    1
     7     1     2   am
     8     2     3    2
     9     2     5    1
    10     5     6   ar
    11     6     7   ar
    12     7     8   ar
    13     8    15    1
    14    15    16    1
    15    16    17   ar
    16    17    18   ar
    17    18    19   ar
    18    19    20   ar
    19     8     9   ar
    20     9    10   ar
    21    10    11   ar
    22    11    12   ar
    23    12    13   ar
    24    13    14   ar
    25    24    25   ar
    26    25    27    1
    27    27    28    2
    28    27    29   am
    29    29    31    1
    30    31    32    1
    31    32    33    1
    32    33    34    1
    33    34    35    1
    34    35    36    1
    35    36    37    1
    36    25    26   ar
    37    26    21   ar
    38    14     5   ar
    39    37    32    1
    40    20    16   ar
    41    14     9   ar
    42     1     4    1
    43    29    30    1
@<TRIPOS>MOLECULE
*****
 39 43 0 0 0
SMALL
GASTEIGER

@<TRIPOS>ATOM
      1 N          63.7899   86.5229   12.9671 N.am    1  UNL1       -0.2791
      2 C          62.7900   87.5329   12.4876 C.2     1  UNL1        0.2495
      3 O          61.3344   87.1759   12.4250 O.2     1  UNL1       -0.2698
      4 H          64.7453   86.7571   13.0082 H       1  UNL1        0.1552
      5 C          63.2456   88.8998   12.0707 C.ar    1  UNL1        0.0537
      6 C          62.9501   89.3994   10.6876 C.ar    1  UNL1        0.0043
      7 C          63.4057   90.7664   10.2707 C.ar    1  UNL1       -0.0022
      8 C          64.1567   91.6338   11.2369 C.ar    1  UNL1        0.0022
      9 C          64.4522   91.1342   12.6201 C.ar    1  UNL1       -0.0019
     10 C          65.2032   92.0016   13.5863 C.ar    1  UNL1       -0.0003
     11 C          65.4986   91.5020   14.9694 C.ar    1  UNL1       -0.0000
     12 C          65.0430   90.1350   15.3864 C.ar    1  UNL1        0.0000
     13 C          64.2920   89.2676   14.4201 C.ar    1  UNL1        0.0001
     14 C          63.9966   89.7672   13.0370 C.ar    1  UNL1        0.0041
     15 C          64.6123   93.0008   10.8200 C.3     1  UNL1        0.1556
     16 N          65.9943   93.1956   10.2704 N.ar    1  UNL1       -0.2257
     17 C          67.1350   92.2289   10.3898 C.ar    1  UNL1        0.1196
     18 C          68.3240   92.8271    9.6981 C.ar    1  UNL1        0.1441
     19 N          67.9180   94.1636    9.1511 N.ar    1  UNL1       -0.1271
     20 N          66.4782   94.3913    9.5048 N.ar    1  UNL1       -0.0634
     21 C          62.4232   82.4219   14.2178 C.ar    1  UNL1        0.2251
     22 C          62.8788   83.4084   15.2518 C.ar    1  UNL1        0.0590
     23 C          63.3344   84.7754   14.8349 C.ar    1  UNL1        0.0212
     24 C          63.3344   85.1559   13.3840 C.ar    1  UNL1        0.0732
     25 C          62.8788   84.1693   12.3499 C.ar    1  UNL1        0.1509
     26 N          62.4232   82.8024   12.7668 N.ar    1  UNL1       -0.2058
     27 C          62.8788   84.5498   10.8990 C.2     1  UNL1        0.2649
     28 O          63.9044   83.9689    9.9713 O.2     1  UNL1       -0.2684
     29 N          61.8532   85.5112   10.3758 N.am    1  UNL1       -0.2996
     30 H          61.1801   85.8925   10.9847 H       1  UNL1        0.1498
     31 C          61.8532   85.8917    8.9248 C.3     1  UNL1        0.0899
     32 C          60.8097   86.8304    8.3957 C.3     1  UNL1        0.0246
     33 C          60.9202   88.3023    8.6628 C.3     1  UNL1        0.0338
     34 C          59.8768   89.2410    8.1336 C.3     1  UNL1        0.1422
     35 O          58.7228   88.7079    7.3373 O.3     1  UNL1       -0.3538
     36 C          58.6123   87.2360    7.0702 C.3     1  UNL1        0.1422
     37 C          59.6558   86.2973    7.5994 C.3     1  UNL1        0.0338
     38 C          62.1031   79.8984   13.6892 C.3     1  UNL1        0.2542
     39 O          61.9677   81.0549   14.6347 O.3     1  UNL1       -0.4561
@<TRIPOS>BOND
     1    38    39    1
     2    39    21    1
     3    21    22   ar
     4    22    23   ar
     5    23    24   ar
     6    24     1    1
     7     1     2   am
     8     2     3    2
     9     2     5    1
    10     5     6   ar
    11     6     7   ar
    12     7     8   ar
    13     8    15    1
    14    15    16    1
    15    16    17   ar
    16    17    18   ar
    17    18    19   ar
    18    19    20   ar
    19     8     9   ar
    20     9    10   ar
    21    10    11   ar
    22    11    12   ar
    23    12    13   ar
    24    13    14   ar
    25    24    25   ar
    26    25    27    1
    27    27    28    2
    28    27    29   am
    29    29    31    1
    30    31    32    1
    31    32    33    1
    32    33    34    1
    33    34    35    1
    34    35    36    1
    35    36    37    1
    36    25    26   ar
    37    26    21   ar
    38    14     5   ar
    39    37    32    1
    40    20    16   ar
    41    14     9   ar
    42     1     4    1
    43    29    30    1
@<TRIPOS>MOLECULE
*****
 39 43 0 0 0
SMALL
GASTEIGER

@<TRIPOS>ATOM
      1 N          63.9068   89.6505   12.5785 N.am    1  UNL1       -0.2791
      2 C          62.7504   90.1202   11.7465 C.2     1  UNL1        0.2495
      3 O          62.3030   91.5499   11.8232 O.2     1  UNL1       -0.2698
      4 H          64.2004   88.7122   12.5282 H       1  UNL1        0.1552
      5 C          62.0415   89.1602   10.8378 C.ar    1  UNL1        0.0537
      6 C          61.2039   89.6779    9.7063 C.ar    1  UNL1        0.0043
      7 C          60.4949   88.7180    8.7976 C.ar    1  UNL1       -0.0022
      8 C          60.6235   87.2402    9.0204 C.ar    1  UNL1        0.0022
      9 C          61.4611   86.7224   10.1519 C.ar    1  UNL1       -0.0019
     10 C          61.5897   85.2446   10.3747 C.ar    1  UNL1       -0.0003
     11 C          62.4273   84.7269   11.5062 C.ar    1  UNL1       -0.0000
     12 C          63.1363   85.6868   12.4149 C.ar    1  UNL1        0.0000
     13 C          63.0077   87.1646   12.1921 C.ar    1  UNL1        0.0001
     14 C          62.1701   87.6824   11.0606 C.ar    1  UNL1        0.0041
     15 C          59.9145   86.2802    8.1117 C.3     1  UNL1        0.1556
     16 N          60.7024   85.4124    7.1757 N.ar    1  UNL1       -0.2257
     17 C          62.1981   85.3405    7.0885 C.ar    1  UNL1        0.1196
     18 C          62.5531   84.3478    6.0215 C.ar    1  UNL1        0.1441
     19 N          61.2766   83.8062    5.4492 N.ar    1  UNL1       -0.1271
     20 N          60.1329   84.4642    6.1625 N.ar    1  UNL1       -0.0634
     21 C          66.0338   92.5304   15.3046 C.ar    1  UNL1        0.2251
     22 C          66.1770   92.6607   13.8172 C.ar    1  UNL1        0.0590
     23 C          65.4680   91.7008   12.9085 C.ar    1  UNL1        0.0212
     24 C          64.6158   90.6105   13.4872 C.ar    1  UNL1        0.0732
     25 C          64.4725   90.4801   14.9747 C.ar    1  UNL1        0.1509
     26 N          65.1815   91.4401   15.8834 N.ar    1  UNL1       -0.2058
     27 C          63.6203   89.3899   15.5534 C.2     1  UNL1        0.2649
     28 O          62.2444   89.7034   16.0619 O.2     1  UNL1       -0.2684
     29 N          64.1440   87.9860   15.6237 N.am    1  UNL1       -0.2996
     30 H          65.0470   87.7803   15.2900 H       1  UNL1        0.1498
     31 C          63.2917   86.8957   16.2024 C.3     1  UNL1        0.0899
     32 C          63.4460   85.4852   15.7160 C.3     1  UNL1        0.0246
     33 C          64.7601   85.0232   15.1595 C.3     1  UNL1        0.0338
     34 C          64.9144   83.6127   14.6731 C.3     1  UNL1        0.1422
     35 O          63.7545   82.6640   14.7433 O.3     1  UNL1       -0.3538
     36 C          62.4404   83.1260   15.2998 C.3     1  UNL1        0.1422
     37 C          62.2862   84.5366   15.7862 C.3     1  UNL1        0.0338
     38 C          68.2084   93.7523   16.0312 C.3     1  UNL1        0.2542
     39 O          66.7428   93.4904   16.2134 O.3     1  UNL1       -0.4561
@<TRIPOS>BOND
     1    38    39    1
     2    39    21    1
     3    21    22   ar
     4    22    23   ar
     5    23    24   ar
     6    24     1    1
     7     1     2   am
     8     2     3    2
     9     2     5    1
    10     5     6   ar
    11     6     7   ar
    12     7     8   ar
    13     8    15    1
    14    15    16    1
    15    16    17   ar
    16    17    18   ar
    17    18    19   ar
    18    19    20   ar
    19     8     9   ar
    20     9    10   ar
    21    10    11   ar
    22    11    12   ar
    23    12    13   ar
    24    13    14   ar
    25    24    25   ar
    26    25    27    1
    27    27    28    2
    28    27    29   am
    29    29    31    1
    30    31    32    1
    31    32    33    1
    32    33    34    1
    33    34    35    1
    34    35    36    1
    35    36    37    1
    36    25    26   ar
    37    26    21   ar
    38    14     5   ar
    39    37    32    1
    40    20    16   ar
    41    14     9   ar
    42     1     4    1
    43    29    30    1
@<TRIPOS>MOLECULE
*****
 39 43 0 0 0
SMALL
GASTEIGER

@<TRIPOS>ATOM
      1 N          63.8193   85.6660   13.7284 N.am    1  UNL1       -0.2791
      2 C          62.9823   86.8521   13.3511 C.2     1  UNL1        0.2495
      3 O          61.5375   86.6671   12.9927 O.2     1  UNL1       -0.2698
      4 H          64.7675   85.7874   13.9636 H       1  UNL1        0.1552
      5 C          63.5901   88.2234   13.3323 C.ar    1  UNL1        0.0537
      6 C          64.4795   88.6650   14.4565 C.ar    1  UNL1        0.0043
      7 C          65.0872   90.0363   14.4377 C.ar    1  UNL1       -0.0022
      8 C          64.8055   90.9659   13.2947 C.ar    1  UNL1        0.0022
      9 C          63.9161   90.5242   12.1704 C.ar    1  UNL1       -0.0019
     10 C          63.6344   91.4538   11.0275 C.ar    1  UNL1       -0.0003
     11 C          62.7449   91.0122    9.9033 C.ar    1  UNL1       -0.0000
     12 C          62.1372   89.6409    9.9221 C.ar    1  UNL1        0.0000
     13 C          62.4189   88.7113   11.0651 C.ar    1  UNL1        0.0001
     14 C          63.3083   89.1530   12.1893 C.ar    1  UNL1        0.0041
     15 C          65.4133   92.3371   13.2759 C.3     1  UNL1        0.1556
     16 N          66.7082   92.5934   13.9882 N.ar    1  UNL1       -0.2257
     17 C          66.8576   93.1545   15.3713 C.ar    1  UNL1        0.1196
     18 C          68.3228   93.2415   15.6804 C.ar    1  UNL1        0.1441
     19 N          69.0790   92.7341   14.4884 N.ar    1  UNL1       -0.1271
     20 N          68.0810   92.3336   13.4426 N.ar    1  UNL1       -0.0634
     21 C          61.9961   81.5522   13.7848 C.ar    1  UNL1        0.2251
     22 C          62.2820   82.2636   15.0740 C.ar    1  UNL1        0.0590
     23 C          62.8897   83.6349   15.0552 C.ar    1  UNL1        0.0212
     24 C          63.2116   84.2947   13.7472 C.ar    1  UNL1        0.0732
     25 C          62.9257   83.5833   12.4579 C.ar    1  UNL1        0.1509
     26 N          62.3180   82.2121   12.4767 N.ar    1  UNL1       -0.2058
     27 C          63.2475   84.2431   11.1499 C.2     1  UNL1        0.2649
     28 O          64.4144   83.7667   10.3365 O.2     1  UNL1       -0.2684
     29 N          62.4026   85.3794   10.6551 N.am    1  UNL1       -0.2996
     30 H          61.6367   85.6921   11.1890 H       1  UNL1        0.1498
     31 C          62.7244   86.0393    9.3470 C.3     1  UNL1        0.0899
     32 C          62.1113   85.5269    8.0776 C.3     1  UNL1        0.0246
     33 C          62.9418   84.7390    7.1083 C.3     1  UNL1        0.0338
     34 C          62.3287   84.2266    5.8389 C.3     1  UNL1        0.1422
     35 O          60.8850   84.5019    5.5388 O.3     1  UNL1       -0.3538
     36 C          60.0545   85.2898    6.5081 C.3     1  UNL1        0.1422
     37 C          60.6677   85.8022    7.7775 C.3     1  UNL1        0.0338
     38 C          59.9401   80.0072   14.1533 C.3     1  UNL1        0.2542
     39 O          61.3884   80.1810   13.8036 O.3     1  UNL1       -0.4561
@<TRIPOS>BOND
     1    38    39    1
     2    39    21    1
     3    21    22   ar
     4    22    23   ar
     5    23    24   ar
     6    24     1    1
     7     1     2   am
     8     2     3    2
     9     2     5    1
    10     5     6   ar
    11     6     7   ar
    12     7     8   ar
    13     8    15    1
    14    15    16    1
    15    16    17   ar
    16    17    18   ar
    17    18    19   ar
    18    19    20   ar
    19     8     9   ar
    20     9    10   ar
    21    10    11   ar
    22    11    12   ar
    23    12    13   ar
    24    13    14   ar
    25    24    25   ar
    26    25    27    1
    27    27    28    2
    28    27    29   am
    29    29    31    1
    30    31    32    1
    31    32    33    1
    32    33    34    1
    33    34    35    1
    34    35    36    1
    35    36    37    1
    36    25    26   ar
    37    26    21   ar
    38    14     5   ar
    39    37    32    1
    40    20    16   ar
    41    14     9   ar
    42     1     4    1
    43    29    30    1
