@<TRIPOS>MOLECULE
*****
 47 51 0 0 0
SMALL
GASTEIGER

@<TRIPOS>ATOM
      1 C          62.7992   85.5703   12.1939 C.ar    1  UNL1        0.1218
      2 C          62.1584   84.9375   10.9943 C.ar    1  UNL1        0.0208
      3 C          61.6011   85.7987    9.8998 C.ar    1  UNL1        0.0112
      4 C          61.6847   87.2927   10.0050 C.ar    1  UNL1        0.0611
      5 C          62.3255   87.9255   11.2046 C.ar    1  UNL1        0.1068
      6 N          62.8827   87.0643   12.2990 N.ar    1  UNL1       -0.2421
      7 C          63.3565   84.7091   13.2884 C.3     1  UNL1        0.3254
      8 F          64.6129   85.5286   13.2934 F       1  UNL1       -0.1949
      9 F          62.0026   84.1225   13.0186 F       1  UNL1       -0.1949
     10 O          64.4711   82.9869   15.4772 O.3     1  UNL1       -0.3755
     11 C          63.9138   83.8480   14.3828 C.3     1  UNL1        0.1932
     12 H          65.4402   83.0024   15.4391 H       1  UNL1        0.2110
     13 C          63.5079   82.6199   13.6232 C.ar    1  UNL1        0.0368
     14 C          62.4937   81.6797   14.2041 C.ar    1  UNL1        0.0028
     15 C          62.0879   80.4516   13.4445 C.ar    1  UNL1        0.0295
     16 C          62.6962   80.1637   12.1040 C.ar    1  UNL1        0.1424
     17 F          62.2903   78.9356   11.3443 F       1  UNL1       -0.2041
     18 C          63.7103   81.1039   11.5230 C.ar    1  UNL1        0.0590
     19 C          64.1162   82.3320   12.2826 C.ar    1  UNL1        0.1408
     20 F          65.1304   83.2722   11.7017 F       1  UNL1       -0.2043
     21 C          64.3197   85.0761   15.1425 C.3     1  UNL1        0.1679
     22 N          63.3030   85.8305   15.9471 N.ar    1  UNL1       -0.2078
     23 C          63.4259   87.2504   16.4147 C.ar    1  UNL1        0.2216
     24 N          62.1838   87.5949   17.1819 N.ar    1  UNL1       -0.1048
     25 N          61.2933   86.3878   17.1884 N.ar    1  UNL1       -0.0226
     26 N          61.9850   85.2974   16.4252 N.ar    1  UNL1       -0.0428
     27 C          61.1274   88.1539    8.9106 C.1     1  UNL1       -0.0582
     28 C          60.5702   89.0151    7.8162 C.1     1  UNL1       -0.0597
     29 C          60.0129   89.8763    6.7217 C.ar    1  UNL1        0.0422
     30 C          60.9400   90.5852    5.7795 C.ar    1  UNL1        0.0114
     31 C          60.3827   91.4464    4.6851 C.ar    1  UNL1        0.0375
     32 C          58.8983   91.5986    4.5328 C.ar    1  UNL1        0.1391
     33 C          57.9711   90.8897    5.4750 C.ar    1  UNL1        0.0375
     34 C          58.5284   90.0285    6.5694 C.ar    1  UNL1        0.0114
     35 O          58.3410   92.4598    3.4383 O.3     1  UNL1       -0.4706
     36 C          58.9436   92.4115    2.0656 C.3     1  UNL1        0.2320
     37 C          60.1872   93.1945    1.7645 C.ar    1  UNL1        0.0214
     38 C          61.4515   92.4795    1.3904 C.ar    1  UNL1        0.0024
     39 C          62.6950   93.2624    1.0893 C.ar    1  UNL1        0.0370
     40 C          62.6741   94.7605    1.1623 C.ar    1  UNL1        0.1468
     41 C          61.4097   95.4756    1.5364 C.ar    1  UNL1        0.0370
     42 C          60.1663   94.6926    1.8375 C.ar    1  UNL1        0.0024
     43 O          63.9176   95.5435    0.8611 O.3     1  UNL1       -0.4045
     44 C          64.4903   95.5376   -0.5252 C.3     1  UNL1        0.5753
     45 F          65.0631   95.5317   -1.9115 F       1  UNL1       -0.1328
     46 F          63.1058   95.6110   -1.0975 F       1  UNL1       -0.1328
     47 F          65.8750   95.4642    0.0471 F       1  UNL1       -0.1328
@<TRIPOS>BOND
     1    10    11    1
     2    11    21    1
     3    21    22    1
     4    22    23   ar
     5    23    24   ar
     6    24    25   ar
     7    25    26   ar
     8    11    13    1
     9    13    14   ar
    10    14    15   ar
    11    15    16   ar
    12    16    17    1
    13    16    18   ar
    14    18    19   ar
    15    19    20    1
    16    11     7    1
    17     7     8    1
    18     7     9    1
    19     7     1    1
    20     1     2   ar
    21     2     3   ar
    22     3     4   ar
    23     4    27    1
    24    27    28    3
    25    28    29    1
    26    29    30   ar
    27    30    31   ar
    28    31    32   ar
    29    32    35    1
    30    35    36    1
    31    36    37    1
    32    37    38   ar
    33    38    39   ar
    34    39    40   ar
    35    40    43    1
    36    43    44    1
    37    44    45    1
    38    44    46    1
    39    44    47    1
    40    40    41   ar
    41    41    42   ar
    42    32    33   ar
    43    33    34   ar
    44     4     5   ar
    45     5     6   ar
    46    26    22   ar
    47    19    13   ar
    48     6     1   ar
    49    34    29   ar
    50    42    37   ar
    51    10    12    1
@<TRIPOS>MOLECULE
*****
 47 51 0 0 0
SMALL
GASTEIGER

@<TRIPOS>ATOM
      1 C          62.8036   85.7857   12.0356 C.ar    1  UNL1        0.1218
      2 C          62.3064   85.1366   10.7781 C.ar    1  UNL1        0.0208
      3 C          61.7652   85.9800    9.6619 C.ar    1  UNL1        0.0112
      4 C          61.7212   87.4727    9.8034 C.ar    1  UNL1        0.0611
      5 C          62.2184   88.1219   11.0609 C.ar    1  UNL1        0.1068
      6 N          62.7596   87.2784   12.1770 N.ar    1  UNL1       -0.2421
      7 C          63.3447   84.9423   13.1518 C.3     1  UNL1        0.3254
      8 F          64.6132   85.7430   13.1418 F       1  UNL1       -0.1949
      9 F          61.9831   84.3695   12.8913 F       1  UNL1       -0.1949
     10 O          64.4271   83.2554   15.3839 O.3     1  UNL1       -0.3755
     11 C          63.8859   84.0989   14.2678 C.3     1  UNL1        0.1932
     12 H          65.3963   83.2960   15.3792 H       1  UNL1        0.2110
     13 C          63.5384   82.8586   13.4991 C.ar    1  UNL1        0.0368
     14 C          64.3110   82.5004   12.2642 C.ar    1  UNL1        0.0028
     15 C          63.9635   81.2602   11.4955 C.ar    1  UNL1        0.0295
     16 C          62.8434   80.3781   11.9616 C.ar    1  UNL1        0.1424
     17 F          62.4959   79.1378   11.1929 F       1  UNL1       -0.2041
     18 C          62.0708   80.7362   13.1964 C.ar    1  UNL1        0.0590
     19 C          62.4183   81.9765   13.9652 C.ar    1  UNL1        0.1408
     20 F          61.6457   82.3346   15.2000 F       1  UNL1       -0.2043
     21 C          64.2335   85.3391   15.0366 C.3     1  UNL1        0.1679
     22 N          63.2243   85.9580   15.9578 N.ar    1  UNL1       -0.2078
     23 C          63.3298   87.3088   16.6016 C.ar    1  UNL1        0.2216
     24 N          62.1032   87.5204   17.4386 N.ar    1  UNL1       -0.1048
     25 N          61.2396   86.3004   17.3121 N.ar    1  UNL1       -0.0226
     26 N          61.9326   85.3348   16.3969 N.ar    1  UNL1       -0.0428
     27 C          61.1801   88.3162    8.6873 C.1     1  UNL1       -0.0582
     28 C          60.6389   89.1597    7.5712 C.1     1  UNL1       -0.0597
     29 C          60.0977   90.0032    6.4551 C.ar    1  UNL1        0.0422
     30 C          61.0385   90.6966    5.5150 C.ar    1  UNL1        0.0114
     31 C          60.4973   91.5401    4.3989 C.ar    1  UNL1        0.0375
     32 C          59.0152   91.6901    4.2230 C.ar    1  UNL1        0.1391
     33 C          58.0744   90.9966    5.1631 C.ar    1  UNL1        0.0375
     34 C          58.6156   90.1532    6.2792 C.ar    1  UNL1        0.0114
     35 O          58.4740   92.5336    3.1069 O.3     1  UNL1       -0.4706
     36 C          59.4145   93.2107    2.1546 C.3     1  UNL1        0.2320
     37 C          59.1771   93.1224    0.6760 C.ar    1  UNL1        0.0214
     38 C          57.7772   93.1496    0.1382 C.ar    1  UNL1        0.0024
     39 C          57.5399   93.0613   -1.3402 C.ar    1  UNL1        0.0370
     40 C          58.7026   92.9459   -2.2809 C.ar    1  UNL1        0.1468
     41 C          60.1025   92.9187   -1.7431 C.ar    1  UNL1        0.0370
     42 C          60.3398   93.0069   -0.2646 C.ar    1  UNL1        0.0024
     43 O          58.4652   92.8576   -3.7594 O.3     1  UNL1       -0.4045
     44 C          57.1569   92.3399   -4.2794 C.3     1  UNL1        0.5753
     45 F          55.8487   91.8223   -4.7994 F       1  UNL1       -0.1328
     46 F          56.6861   93.7475   -4.4959 F       1  UNL1       -0.1328
     47 F          57.6278   90.9323   -4.0628 F       1  UNL1       -0.1328
@<TRIPOS>BOND
     1    10    11    1
     2    11    21    1
     3    21    22    1
     4    22    23   ar
     5    23    24   ar
     6    24    25   ar
     7    25    26   ar
     8    11    13    1
     9    13    14   ar
    10    14    15   ar
    11    15    16   ar
    12    16    17    1
    13    16    18   ar
    14    18    19   ar
    15    19    20    1
    16    11     7    1
    17     7     8    1
    18     7     9    1
    19     7     1    1
    20     1     2   ar
    21     2     3   ar
    22     3     4   ar
    23     4    27    1
    24    27    28    3
    25    28    29    1
    26    29    30   ar
    27    30    31   ar
    28    31    32   ar
    29    32    35    1
    30    35    36    1
    31    36    37    1
    32    37    38   ar
    33    38    39   ar
    34    39    40   ar
    35    40    43    1
    36    43    44    1
    37    44    45    1
    38    44    46    1
    39    44    47    1
    40    40    41   ar
    41    41    42   ar
    42    32    33   ar
    43    33    34   ar
    44     4     5   ar
    45     5     6   ar
    46    26    22   ar
    47    19    13   ar
    48     6     1   ar
    49    34    29   ar
    50    42    37   ar
    51    10    12    1
@<TRIPOS>MOLECULE
*****
 47 51 0 0 0
SMALL
GASTEIGER

@<TRIPOS>ATOM
      1 C          60.0479   93.4745    1.4321 C.ar    1  UNL1        0.1218
      2 C          61.3737   93.0250    1.9706 C.ar    1  UNL1        0.0208
      3 C          61.4344   92.2012    3.2227 C.ar    1  UNL1        0.0112
      4 C          60.1692   91.8270    3.9363 C.ar    1  UNL1        0.0611
      5 C          58.8433   92.2765    3.3977 C.ar    1  UNL1        0.1068
      6 N          58.7827   93.1003    2.1456 N.ar    1  UNL1       -0.2421
      7 C          59.9872   94.2983    0.1799 C.3     1  UNL1        0.3254
      8 F          59.4707   95.4632    0.9713 F       1  UNL1       -0.1949
      9 F          60.5030   92.9687   -0.2850 F       1  UNL1       -0.1949
     10 O          59.8658   95.9458   -2.3242 O.3     1  UNL1       -0.3755
     11 C          59.9265   95.1221   -1.0721 C.3     1  UNL1        0.1932
     12 H          59.4212   96.7872   -2.1364 H       1  UNL1        0.2110
     13 C          58.8558   94.2214   -1.6128 C.ar    1  UNL1        0.0368
     14 C          57.4747   94.2636   -1.0291 C.ar    1  UNL1        0.0028
     15 C          56.4040   93.3629   -1.5698 C.ar    1  UNL1        0.0295
     16 C          56.7145   92.4199   -2.6942 C.ar    1  UNL1        0.1424
     17 F          55.6438   91.5192   -3.2349 F       1  UNL1       -0.2041
     18 C          58.0955   92.3776   -3.2780 C.ar    1  UNL1        0.0590
     19 C          59.1663   93.2784   -2.7373 C.ar    1  UNL1        0.1408
     20 F          60.5473   93.2361   -3.3210 F       1  UNL1       -0.2043
     21 C          60.9972   96.0228   -0.5315 C.3     1  UNL1        0.1679
     22 N          62.4418   95.7008   -0.7749 N.ar    1  UNL1       -0.2078
     23 C          63.5494   95.8015    0.2317 C.ar    1  UNL1        0.2216
     24 N          64.8246   95.3844   -0.4389 N.ar    1  UNL1       -0.1048
     25 N          64.5052   95.0259   -1.8601 N.ar    1  UNL1       -0.0226
     26 N          63.0325   95.2214   -2.0676 N.ar    1  UNL1       -0.0428
     27 C          60.2299   91.0033    5.1884 C.1     1  UNL1       -0.0582
     28 C          60.2905   90.1795    6.4404 C.1     1  UNL1       -0.0597
     29 C          60.3511   89.3557    7.6926 C.ar    1  UNL1        0.0422
     30 C          59.7685   87.9736    7.7099 C.ar    1  UNL1        0.0114
     31 C          59.8292   87.1499    8.9620 C.ar    1  UNL1        0.0375
     32 C          60.4724   87.7083   10.1967 C.ar    1  UNL1        0.1391
     33 C          61.0550   89.0904   10.1793 C.ar    1  UNL1        0.0375
     34 C          60.9944   89.9141    8.9273 C.ar    1  UNL1        0.0114
     35 O          60.5330   86.8845   11.4488 O.3     1  UNL1       -0.4706
     36 C          61.8528   86.6251   12.1128 C.3     1  UNL1        0.2320
     37 C          62.3504   85.2187   12.2688 C.ar    1  UNL1        0.0214
     38 C          62.6668   84.3961   11.0551 C.ar    1  UNL1        0.0024
     39 C          63.1644   82.9897   11.2111 C.ar    1  UNL1        0.0370
     40 C          63.3456   82.4058   12.5809 C.ar    1  UNL1        0.1468
     41 C          63.0292   83.2284   13.7946 C.ar    1  UNL1        0.0370
     42 C          62.5316   84.6348   13.6386 C.ar    1  UNL1        0.0024
     43 O          63.8432   80.9994   12.7369 O.3     1  UNL1       -0.4045
     44 C          62.8783   79.8918   13.0407 C.3     1  UNL1        0.5753
     45 F          61.9135   78.7843   13.3445 F       1  UNL1       -0.1328
     46 F          63.0776   80.1212   14.5096 F       1  UNL1       -0.1328
     47 F          62.6790   79.6624   11.5718 F       1  UNL1       -0.1328
@<TRIPOS>BOND
     1    10    11    1
     2    11    21    1
     3    21    22    1
     4    22    23   ar
     5    23    24   ar
     6    24    25   ar
     7    25    26   ar
     8    11    13    1
     9    13    14   ar
    10    14    15   ar
    11    15    16   ar
    12    16    17    1
    13    16    18   ar
    14    18    19   ar
    15    19    20    1
    16    11     7    1
    17     7     8    1
    18     7     9    1
    19     7     1    1
    20     1     2   ar
    21     2     3   ar
    22     3     4   ar
    23     4    27    1
    24    27    28    3
    25    28    29    1
    26    29    30   ar
    27    30    31   ar
    28    31    32   ar
    29    32    35    1
    30    35    36    1
    31    36    37    1
    32    37    38   ar
    33    38    39   ar
    34    39    40   ar
    35    40    43    1
    36    43    44    1
    37    44    45    1
    38    44    46    1
    39    44    47    1
    40    40    41   ar
    41    41    42   ar
    42    32    33   ar
    43    33    34   ar
    44     4     5   ar
    45     5     6   ar
    46    26    22   ar
    47    19    13   ar
    48     6     1   ar
    49    34    29   ar
    50    42    37   ar
    51    10    12    1
@<TRIPOS>MOLECULE
*****
 47 51 0 0 0
SMALL
GASTEIGER

@<TRIPOS>ATOM
      1 C          59.9233   94.2131    0.5371 C.ar    1  UNL1        0.1218
      2 C          59.9405   92.7200    0.3950 C.ar    1  UNL1        0.0208
      3 C          59.9406   91.8502    1.6172 C.ar    1  UNL1        0.0112
      4 C          59.9236   92.4736    2.9814 C.ar    1  UNL1        0.0611
      5 C          59.9065   93.9669    3.1234 C.ar    1  UNL1        0.1068
      6 N          59.9063   94.8365    1.9013 N.ar    1  UNL1       -0.2421
      7 C          59.9231   95.0828   -0.6851 C.3     1  UNL1        0.3254
      8 F          59.9896   93.8619   -1.5540 F       1  UNL1       -0.1949
      9 F          59.8586   96.0570    0.4537 F       1  UNL1       -0.1949
     10 O          59.9228   96.8222   -3.1293 O.3     1  UNL1       -0.3755
     11 C          59.9229   95.9525   -1.9072 C.3     1  UNL1        0.1932
     12 H          60.0095   97.7514   -2.8649 H       1  UNL1        0.2110
     13 C          58.4495   95.7236   -2.0698 C.ar    1  UNL1        0.0368
     14 C          57.4790   96.4011   -1.1482 C.ar    1  UNL1        0.0028
     15 C          56.0055   96.1722   -1.3109 C.ar    1  UNL1        0.0295
     16 C          55.5025   95.2659   -2.3951 C.ar    1  UNL1        0.1424
     17 F          54.0290   95.0370   -2.5578 F       1  UNL1       -0.2041
     18 C          56.4729   94.5885   -3.3167 C.ar    1  UNL1        0.0590
     19 C          57.9464   94.8173   -3.1541 C.ar    1  UNL1        0.1408
     20 F          58.9169   94.1399   -4.0756 F       1  UNL1       -0.2043
     21 C          61.3965   96.1814   -1.7446 C.3     1  UNL1        0.1679
     22 N          62.3580   95.6215   -2.7505 N.ar    1  UNL1       -0.2078
     23 C          63.8355   95.8767   -2.7950 C.ar    1  UNL1        0.2216
     24 N          64.4015   95.1210   -3.9606 N.ar    1  UNL1       -0.1048
     25 N          63.2737   94.3988   -4.6365 N.ar    1  UNL1       -0.0226
     26 N          62.0108   94.7081   -3.8886 N.ar    1  UNL1       -0.0428
     27 C          59.9238   91.6040    4.2035 C.1     1  UNL1       -0.0582
     28 C          59.9240   90.7343    5.4256 C.1     1  UNL1       -0.0597
     29 C          59.9241   89.8646    6.6478 C.ar    1  UNL1        0.0422
     30 C          59.3144   88.4952    6.5940 C.ar    1  UNL1        0.0114
     31 C          59.3146   87.6256    7.8161 C.ar    1  UNL1        0.0375
     32 C          59.9245   88.1254    9.0922 C.ar    1  UNL1        0.1391
     33 C          60.5342   89.4948    9.1460 C.ar    1  UNL1        0.0375
     34 C          60.5340   90.3644    7.9239 C.ar    1  UNL1        0.0114
     35 O          59.9246   87.2557   10.3144 O.3     1  UNL1       -0.4706
     36 C          61.1395   87.1956   11.1920 C.3     1  UNL1        0.2320
     37 C          61.8784   85.9013   11.3625 C.ar    1  UNL1        0.0214
     38 C          62.4295   85.1888   10.1631 C.ar    1  UNL1        0.0024
     39 C          63.1683   83.8946   10.3337 C.ar    1  UNL1        0.0370
     40 C          63.3560   83.3129   11.7035 C.ar    1  UNL1        0.1468
     41 C          62.8048   84.0255   12.9028 C.ar    1  UNL1        0.0370
     42 C          62.0660   85.3197   12.7323 C.ar    1  UNL1        0.0024
     43 O          64.0948   82.0186   11.8740 O.3     1  UNL1       -0.4045
     44 C          63.3482   80.7723   12.2471 C.3     1  UNL1        0.5753
     45 F          62.6016   79.5260   12.6202 F       1  UNL1       -0.1328
     46 F          62.8961   80.6175   10.8253 F       1  UNL1       -0.1328
     47 F          63.8003   80.9271   13.6690 F       1  UNL1       -0.1328
@<TRIPOS>BOND
     1    10    11    1
     2    11    21    1
     3    21    22    1
     4    22    23   ar
     5    23    24   ar
     6    24    25   ar
     7    25    26   ar
     8    11    13    1
     9    13    14   ar
    10    14    15   ar
    11    15    16   ar
    12    16    17    1
    13    16    18   ar
    14    18    19   ar
    15    19    20    1
    16    11     7    1
    17     7     8    1
    18     7     9    1
    19     7     1    1
    20     1     2   ar
    21     2     3   ar
    22     3     4   ar
    23     4    27    1
    24    27    28    3
    25    28    29    1
    26    29    30   ar
    27    30    31   ar
    28    31    32   ar
    29    32    35    1
    30    35    36    1
    31    36    37    1
    32    37    38   ar
    33    38    39   ar
    34    39    40   ar
    35    40    43    1
    36    43    44    1
    37    44    45    1
    38    44    46    1
    39    44    47    1
    40    40    41   ar
    41    41    42   ar
    42    32    33   ar
    43    33    34   ar
    44     4     5   ar
    45     5     6   ar
    46    26    22   ar
    47    19    13   ar
    48     6     1   ar
    49    34    29   ar
    50    42    37   ar
    51    10    12    1
