@<TRIPOS>MOLECULE
*****
 39 43 0 0 0
SMALL
GASTEIGER

@<TRIPOS>ATOM
      1 N          60.5220   89.3874    8.2882 N.am    1  UNL1       -0.2824
      2 C          60.6168   89.3607    9.7850 C.2     1  UNL1        0.3043
      3 O          59.5521   88.6787   10.5920 O.2     1  UNL1       -0.2526
      4 N          61.7764   90.0161   10.4749 N.am    1  UNL1       -0.2641
      5 C          61.8712   89.9894   11.9716 C.3     1  UNL1        0.0967
      6 C          63.0308   90.6448   12.6615 C.3     1  UNL1        0.0418
      7 C          64.0956   91.3269   11.8545 C.3     1  UNL1        0.0848
      8 C          64.0007   91.3535   10.3578 C.3     1  UNL1        0.0418
      9 C          62.8411   90.6982    9.6680 C.3     1  UNL1        0.0967
     10 H          61.2208   89.8351    7.7586 H       1  UNL1        0.1514
     11 N          65.2551   91.9823   12.5444 N.am    1  UNL1       -0.2422
     12 C          66.4376   92.6151   11.8726 C.2     1  UNL1        0.3310
     13 O          66.6682   92.7036   10.3931 O.2     1  UNL1       -0.2501
     14 N          67.3490   93.1438   12.9402 N.am    1  UNL1       -0.1647
     15 C          66.7298   92.8378   14.2718 C.2     1  UNL1        0.0706
     16 C          67.1772   93.1200   15.6754 C.3     1  UNL1        0.0705
     17 C          66.3304   92.6844   16.8343 C.2     1  UNL1       -0.0199
     18 C          65.0363   91.9666   16.5896 C.2     1  UNL1       -0.0029
     19 C          64.5889   91.6843   15.1860 C.2     1  UNL1        0.0156
     20 C          65.4357   92.1199   14.0271 C.2     1  UNL1        0.0668
     21 C          59.3624   88.7320    7.5985 C.3     1  UNL1        0.1499
     22 C          58.4844   89.5325    6.6829 C.2     1  UNL1        0.2435
     23 O          56.9922   89.4216    6.7881 O.2     1  UNL1       -0.2731
     24 N          59.0986   90.4439    5.6621 N.am    1  UNL1       -0.2781
     25 C          58.2207   91.2445    4.7465 C.3     1  UNL1        0.0948
     26 C          58.8349   92.1559    3.7258 C.3     1  UNL1        0.0375
     27 C          60.3270   92.2669    3.6205 C.3     1  UNL1        0.0609
     28 C          61.2051   91.4663    4.5362 C.3     1  UNL1        0.0375
     29 C          60.5908   90.5548    5.5570 C.3     1  UNL1        0.0948
     30 N          60.9413   93.1783    2.5998 N.3     1  UNL1       -0.2738
     31 C          60.2332   94.4375    2.1961 C.3     1  UNL1        0.0720
     32 C          60.8475   95.3490    1.1753 C.3     1  UNL1        0.0174
     33 C          62.1697   95.0012    0.5583 C.3     1  UNL1        0.0029
     34 C          62.8778   93.7420    0.9620 C.3     1  UNL1        0.0174
     35 C          62.2635   92.8305    1.9828 C.3     1  UNL1        0.0720
     36 C          59.0809   87.2761    7.8243 C.3     1  UNL1        0.0290
     37 C          60.8352   86.0698    9.3134 C.3     1  UNL1        0.0001
     38 C          60.2161   86.3061    7.9677 C.3     1  UNL1        0.0021
     39 C          60.7322   85.5724    6.7655 C.3     1  UNL1        0.0001
@<TRIPOS>BOND
     1    37    38    1
     2    38    39    1
     3    38    36    1
     4    21    36    1
     5    21     1    1
     6     1     2   am
     7     2     3    2
     8     2     4   am
     9     4     5    1
    10     5     6    1
    11     6     7    1
    12     7    11    1
    13    11    12   am
    14    12    13    2
    15    12    14    1
    16    14    15    2
    17    15    16    1
    18    16    17    1
    19    17    18    2
    20    18    19    1
    21    19    20    2
    22     7     8    1
    23     8     9    1
    24    21    22    1
    25    22    23    2
    26    22    24   am
    27    24    25    1
    28    25    26    1
    29    26    27    1
    30    27    30    1
    31    30    31    1
    32    31    32    1
    33    32    33    1
    34    33    34    1
    35    34    35    1
    36    27    28    1
    37    28    29    1
    38     9     4    1
    39    29    24    1
    40    20    11    1
    41    35    30    1
    42    20    15    1
    43     1    10    1
@<TRIPOS>MOLECULE
*****
 39 43 0 0 0
SMALL
GASTEIGER

@<TRIPOS>ATOM
      1 N          60.4710   89.0487    7.2529 N.am    1  UNL1       -0.2824
      2 C          59.3104   89.6783    6.5410 C.2     1  UNL1        0.3043
      3 O          57.9081   89.2820    6.8964 O.2     1  UNL1       -0.2526
      4 N          59.5522   90.7042    5.4737 N.am    1  UNL1       -0.2641
      5 C          58.3917   91.3337    4.7618 C.3     1  UNL1        0.0967
      6 C          58.6335   92.3596    3.6945 C.3     1  UNL1        0.0418
      7 C          60.0360   92.7559    3.3391 C.3     1  UNL1        0.0848
      8 C          61.1964   92.1263    4.0510 C.3     1  UNL1        0.0418
      9 C          60.9546   91.1005    5.1183 C.3     1  UNL1        0.0967
     10 H          61.3914   89.3088    7.0197 H       1  UNL1        0.1514
     11 N          60.2778   93.7818    2.2718 N.am    1  UNL1       -0.2422
     12 C          60.1541   95.2679    2.4331 C.2     1  UNL1        0.3310
     13 O          59.7669   95.9892    3.6901 O.2     1  UNL1       -0.2501
     14 N          60.4856   95.9062    1.1168 N.am    1  UNL1       -0.1647
     15 C          60.8142   94.8145    0.1420 C.2     1  UNL1        0.0706
     16 C          61.2137   94.8464   -1.3035 C.3     1  UNL1        0.0705
     17 C          61.4848   93.5653   -2.0350 C.2     1  UNL1       -0.0199
     18 C          61.3564   92.2523   -1.3212 C.2     1  UNL1       -0.0029
     19 C          60.9568   92.2204    0.1242 C.2     1  UNL1        0.0156
     20 C          60.6857   93.5015    0.8558 C.2     1  UNL1        0.0668
     21 C          60.2290   88.0228    8.3203 C.3     1  UNL1        0.1499
     22 C          60.0803   88.4494    9.7506 C.2     1  UNL1        0.2435
     23 O          58.8358   88.1005   10.5118 O.2     1  UNL1       -0.2731
     24 N          61.1762   89.2248   10.4197 N.am    1  UNL1       -0.2781
     25 C          61.0275   89.6514   11.8501 C.3     1  UNL1        0.0948
     26 C          62.1234   90.4269   12.5192 C.3     1  UNL1        0.0375
     27 C          63.3679   90.7757   11.7581 C.3     1  UNL1        0.0609
     28 C          63.5166   90.3491   10.3277 C.3     1  UNL1        0.0375
     29 C          62.4207   89.5737    9.6585 C.3     1  UNL1        0.0948
     30 N          64.4638   91.5512   12.4273 N.3     1  UNL1       -0.2738
     31 C          65.1380   92.6765   11.7000 C.3     1  UNL1        0.0720
     32 C          66.2339   93.4520   12.3692 C.3     1  UNL1        0.0174
     33 C          66.6555   93.1020   13.7655 C.3     1  UNL1        0.0029
     34 C          65.9813   91.9766   14.4928 C.3     1  UNL1        0.0174
     35 C          64.8854   91.2012   13.8236 C.3     1  UNL1        0.0720
     36 C          60.1359   86.5705    7.9571 C.3     1  UNL1        0.0290
     37 C          62.5101   85.8756    8.7511 C.3     1  UNL1        0.0001
     38 C          61.3859   85.7638    7.7644 C.3     1  UNL1        0.0021
     39 C          61.5115   84.8455    6.5851 C.3     1  UNL1        0.0001
@<TRIPOS>BOND
     1    37    38    1
     2    38    39    1
     3    38    36    1
     4    21    36    1
     5    21     1    1
     6     1     2   am
     7     2     3    2
     8     2     4   am
     9     4     5    1
    10     5     6    1
    11     6     7    1
    12     7    11    1
    13    11    12   am
    14    12    13    2
    15    12    14    1
    16    14    15    2
    17    15    16    1
    18    16    17    1
    19    17    18    2
    20    18    19    1
    21    19    20    2
    22     7     8    1
    23     8     9    1
    24    21    22    1
    25    22    23    2
    26    22    24   am
    27    24    25    1
    28    25    26    1
    29    26    27    1
    30    27    30    1
    31    30    31    1
    32    31    32    1
    33    32    33    1
    34    33    34    1
    35    34    35    1
    36    27    28    1
    37    28    29    1
    38     9     4    1
    39    29    24    1
    40    20    11    1
    41    35    30    1
    42    20    15    1
    43     1    10    1
@<TRIPOS>MOLECULE
*****
 39 43 0 0 0
SMALL
GASTEIGER

@<TRIPOS>ATOM
      1 N          60.5714   89.8137    6.7609 N.am    1  UNL1       -0.2824
      2 C          59.6489   90.6009    5.8782 C.2     1  UNL1        0.3043
      3 O          58.1855   90.6748    6.1989 O.2     1  UNL1       -0.2526
      4 N          60.1899   91.3143    4.6747 N.am    1  UNL1       -0.2641
      5 C          59.2674   92.1016    3.7920 C.3     1  UNL1        0.0967
      6 C          59.8084   92.8150    2.5884 C.3     1  UNL1        0.0418
      7 C          61.2719   92.7411    2.2677 C.3     1  UNL1        0.0848
      8 C          62.1943   91.9539    3.1504 C.3     1  UNL1        0.0418
      9 C          61.6533   91.2405    4.3539 C.3     1  UNL1        0.0967
     10 H          61.5319   89.7652    6.5504 H       1  UNL1        0.1514
     11 N          61.8128   93.4546    1.0641 N.am    1  UNL1       -0.2422
     12 C          61.2953   93.3344   -0.3386 C.2     1  UNL1        0.3310
     13 O          60.1459   92.4797   -0.7841 O.2     1  UNL1       -0.2501
     14 N          62.1289   94.2190   -1.2176 N.am    1  UNL1       -0.1647
     15 C          63.1616   94.8858   -0.3581 C.2     1  UNL1        0.0706
     16 C          64.2547   95.8622   -0.6773 C.3     1  UNL1        0.0705
     17 C          65.1523   96.3661    0.4136 C.2     1  UNL1       -0.0199
     18 C          64.9570   95.8937    1.8238 C.2     1  UNL1       -0.0029
     19 C          63.8640   94.9173    2.1431 C.2     1  UNL1        0.0156
     20 C          62.9663   94.4134    1.0521 C.2     1  UNL1        0.0668
     21 C          60.0304   89.1003    7.9644 C.3     1  UNL1        0.1499
     22 C          60.1479   87.6085    8.0678 C.2     1  UNL1        0.2435
     23 O          59.4952   86.7317    7.0405 O.2     1  UNL1       -0.2731
     24 N          60.9182   86.9934    9.1984 N.am    1  UNL1       -0.2781
     25 C          61.0357   85.5016    9.3018 C.3     1  UNL1        0.0948
     26 C          61.8060   84.8866   10.4325 C.3     1  UNL1        0.0375
     27 C          62.4587   85.7632   11.4597 C.3     1  UNL1        0.0609
     28 C          62.3412   87.2551   11.3563 C.3     1  UNL1        0.0375
     29 C          61.5709   87.8702   10.2257 C.3     1  UNL1        0.0948
     30 N          63.2290   85.1482   12.5904 N.3     1  UNL1       -0.2738
     31 C          63.3874   83.6586   12.6670 C.3     1  UNL1        0.0720
     32 C          64.1577   83.0435   13.7977 C.3     1  UNL1        0.0174
     33 C          64.7695   83.9181   14.8516 C.3     1  UNL1        0.0029
     34 C          64.6111   85.4077   14.7750 C.3     1  UNL1        0.0174
     35 C          63.8408   86.0227   13.6443 C.3     1  UNL1        0.0720
     36 C          59.3719   89.8788    9.0646 C.3     1  UNL1        0.0290
     37 C          59.5365   90.5612   11.5661 C.3     1  UNL1        0.0001
     38 C          60.1840   90.3685   10.2268 C.3     1  UNL1        0.0021
     39 C          61.6436   90.6654   10.0498 C.3     1  UNL1        0.0001
@<TRIPOS>BOND
     1    37    38    1
     2    38    39    1
     3    38    36    1
     4    21    36    1
     5    21     1    1
     6     1     2   am
     7     2     3    2
     8     2     4   am
     9     4     5    1
    10     5     6    1
    11     6     7    1
    12     7    11    1
    13    11    12   am
    14    12    13    2
    15    12    14    1
    16    14    15    2
    17    15    16    1
    18    16    17    1
    19    17    18    2
    20    18    19    1
    21    19    20    2
    22     7     8    1
    23     8     9    1
    24    21    22    1
    25    22    23    2
    26    22    24   am
    27    24    25    1
    28    25    26    1
    29    26    27    1
    30    27    30    1
    31    30    31    1
    32    31    32    1
    33    32    33    1
    34    33    34    1
    35    34    35    1
    36    27    28    1
    37    28    29    1
    38     9     4    1
    39    29    24    1
    40    20    11    1
    41    35    30    1
    42    20    15    1
    43     1    10    1
@<TRIPOS>MOLECULE
*****
 39 43 0 0 0
SMALL
GASTEIGER

@<TRIPOS>ATOM
      1 N          60.5269   89.7976    6.7816 N.am    1  UNL1       -0.2824
      2 C          59.5811   90.5724    5.9126 C.2     1  UNL1        0.3043
      3 O          58.1206   90.6210    6.2508 O.2     1  UNL1       -0.2526
      4 N          60.0959   91.2987    4.7053 N.am    1  UNL1       -0.2641
      5 C          59.1501   92.0735    3.8363 C.3     1  UNL1        0.0967
      6 C          59.6648   92.7998    2.6290 C.3     1  UNL1        0.0418
      7 C          61.1255   92.7513    2.2907 C.3     1  UNL1        0.0848
      8 C          62.0712   91.9765    3.1598 C.3     1  UNL1        0.0418
      9 C          61.5564   91.2502    4.3670 C.3     1  UNL1        0.0967
     10 H          61.4855   89.7658    6.5596 H       1  UNL1        0.1514
     11 N          61.6402   93.4775    1.0834 N.am    1  UNL1       -0.2422
     12 C          62.8706   94.3337    1.0277 C.2     1  UNL1        0.3310
     13 O          63.8023   94.6139    2.1694 O.2     1  UNL1       -0.2501
     14 N          63.0057   94.8605   -0.3703 N.am    1  UNL1       -0.1647
     15 C          61.8589   94.3298   -1.1785 C.2     1  UNL1        0.0706
     16 C          61.4740   94.5145   -2.6164 C.3     1  UNL1        0.0705
     17 C          60.2452   93.8445   -3.1559 C.2     1  UNL1       -0.0199
     18 C          59.4013   92.9898   -2.2574 C.2     1  UNL1       -0.0029
     19 C          59.7862   92.8051   -0.8195 C.2     1  UNL1        0.0156
     20 C          61.0149   93.4751   -0.2800 C.2     1  UNL1        0.0668
     21 C          60.0120   89.0714    7.9889 C.3     1  UNL1        0.1499
     22 C          60.1522   87.5810    8.0840 C.2     1  UNL1        0.2435
     23 O          59.5222   86.7006    7.0458 O.2     1  UNL1       -0.2731
     24 N          60.9226   86.9710    9.2174 N.am    1  UNL1       -0.2781
     25 C          61.0628   85.4806    9.3125 C.3     1  UNL1        0.0948
     26 C          61.8331   84.8706   10.4459 C.3     1  UNL1        0.0375
     27 C          62.4632   85.7509   11.4841 C.3     1  UNL1        0.0609
     28 C          62.3230   87.2414   11.3889 C.3     1  UNL1        0.0375
     29 C          61.5526   87.8514   10.2556 C.3     1  UNL1        0.0948
     30 N          63.2335   85.1410   12.6175 N.3     1  UNL1       -0.2738
     31 C          63.8476   86.0205   13.6659 C.3     1  UNL1        0.0720
     32 C          64.6179   85.4105   14.7993 C.3     1  UNL1        0.0174
     33 C          64.7742   83.9211   14.8841 C.3     1  UNL1        0.0029
     34 C          64.1601   83.0416   13.8357 C.3     1  UNL1        0.0174
     35 C          63.3898   83.6515   12.7023 C.3     1  UNL1        0.0720
     36 C          59.3570   89.8356    9.1011 C.3     1  UNL1        0.0290
     37 C          61.6324   90.6654   10.0412 C.3     1  UNL1        0.0001
     38 C          60.1805   90.3488   10.2450 C.3     1  UNL1        0.0021
     39 C          59.5519   90.5453   11.5928 C.3     1  UNL1        0.0001
@<TRIPOS>BOND
     1    37    38    1
     2    38    39    1
     3    38    36    1
     4    21    36    1
     5    21     1    1
     6     1     2   am
     7     2     3    2
     8     2     4   am
     9     4     5    1
    10     5     6    1
    11     6     7    1
    12     7    11    1
    13    11    12   am
    14    12    13    2
    15    12    14    1
    16    14    15    2
    17    15    16    1
    18    16    17    1
    19    17    18    2
    20    18    19    1
    21    19    20    2
    22     7     8    1
    23     8     9    1
    24    21    22    1
    25    22    23    2
    26    22    24   am
    27    24    25    1
    28    25    26    1
    29    26    27    1
    30    27    30    1
    31    30    31    1
    32    31    32    1
    33    32    33    1
    34    33    34    1
    35    34    35    1
    36    27    28    1
    37    28    29    1
    38     9     4    1
    39    29    24    1
    40    20    11    1
    41    35    30    1
    42    20    15    1
    43     1    10    1
@<TRIPOS>MOLECULE
*****
 39 43 0 0 0
SMALL
GASTEIGER

@<TRIPOS>ATOM
      1 N          60.6476   89.7408    7.8401 N.am    1  UNL1       -0.2824
      2 C          60.2102   89.4088    9.2360 C.2     1  UNL1        0.3043
      3 O          58.9037   88.7089    9.4662 O.2     1  UNL1       -0.2526
      4 N          61.0795   89.7767   10.4018 N.am    1  UNL1       -0.2641
      5 C          60.6421   89.4446   11.7977 C.3     1  UNL1        0.0967
      6 C          61.5113   89.8125   12.9635 C.3     1  UNL1        0.0418
      7 C          62.8180   90.5125   12.7334 C.3     1  UNL1        0.0848
      8 C          63.2553   90.8444   11.3376 C.3     1  UNL1        0.0418
      9 C          62.3860   90.4766   10.1718 C.3     1  UNL1        0.0967
     10 H          61.5051   90.2002    7.6891 H       1  UNL1        0.1514
     11 N          63.6872   90.8803   13.8992 N.am    1  UNL1       -0.2422
     12 C          63.5035   90.4215   15.3155 C.2     1  UNL1        0.3310
     13 O          62.4182   89.5142   15.8145 O.2     1  UNL1       -0.2501
     14 N          64.5955   91.0293   16.1449 N.am    1  UNL1       -0.1647
     15 C          65.4542   91.8637   15.2414 C.2     1  UNL1        0.0706
     16 C          66.6747   92.6954   15.5031 C.3     1  UNL1        0.0705
     17 C          67.3338   93.4351   14.3770 C.2     1  UNL1       -0.0199
     18 C          66.7725   93.3431   12.9890 C.2     1  UNL1       -0.0029
     19 C          65.5520   92.5113   12.7273 C.2     1  UNL1        0.0156
     20 C          64.8928   91.7717   13.8534 C.2     1  UNL1        0.0668
     21 C          59.7783   89.3729    6.6744 C.3     1  UNL1        0.1499
     22 C          59.1476   90.4482    5.8402 C.2     1  UNL1        0.2435
     23 O          57.7031   90.8008    6.0381 O.2     1  UNL1       -0.2731
     24 N          59.9615   91.1710    4.8082 N.am    1  UNL1       -0.2781
     25 C          59.3309   92.2464    3.9740 C.3     1  UNL1        0.0948
     26 C          60.1448   92.9692    2.9419 C.3     1  UNL1        0.0375
     27 C          61.5893   92.6167    2.7440 C.3     1  UNL1        0.0609
     28 C          62.2199   91.5413    3.5783 C.3     1  UNL1        0.0375
     29 C          61.4060   90.8185    4.6103 C.3     1  UNL1        0.0948
     30 N          62.4032   93.3395    1.7120 N.3     1  UNL1       -0.2738
     31 C          61.7405   94.3081    0.7778 C.3     1  UNL1        0.0720
     32 C          62.5544   95.0309   -0.2542 C.3     1  UNL1        0.0174
     33 C          64.0309   94.7851   -0.3521 C.3     1  UNL1        0.0029
     34 C          64.6935   93.8166    0.5821 C.3     1  UNL1        0.0174
     35 C          63.8796   93.0937    1.6141 C.3     1  UNL1        0.0720
     36 C          59.5397   87.9296    6.3428 C.3     1  UNL1        0.0290
     37 C          61.0286   86.3575    7.7789 C.3     1  UNL1        0.0001
     38 C          59.6732   86.8831    7.4093 C.3     1  UNL1        0.0021
     39 C          58.4512   86.3622    8.1060 C.3     1  UNL1        0.0001
@<TRIPOS>BOND
     1    37    38    1
     2    38    39    1
     3    38    36    1
     4    21    36    1
     5    21     1    1
     6     1     2   am
     7     2     3    2
     8     2     4   am
     9     4     5    1
    10     5     6    1
    11     6     7    1
    12     7    11    1
    13    11    12   am
    14    12    13    2
    15    12    14    1
    16    14    15    2
    17    15    16    1
    18    16    17    1
    19    17    18    2
    20    18    19    1
    21    19    20    2
    22     7     8    1
    23     8     9    1
    24    21    22    1
    25    22    23    2
    26    22    24   am
    27    24    25    1
    28    25    26    1
    29    26    27    1
    30    27    30    1
    31    30    31    1
    32    31    32    1
    33    32    33    1
    34    33    34    1
    35    34    35    1
    36    27    28    1
    37    28    29    1
    38     9     4    1
    39    29    24    1
    40    20    11    1
    41    35    30    1
    42    20    15    1
    43     1    10    1
@<TRIPOS>MOLECULE
*****
 39 43 0 0 0
SMALL
GASTEIGER

@<TRIPOS>ATOM
      1 N          61.7575   86.9072   11.0688 N.am    1  UNL1       -0.2824
      2 C          61.1138   86.4233    9.8033 C.2     1  UNL1        0.3043
      3 O          60.9848   84.9518    9.5426 O.2     1  UNL1       -0.2526
      4 N          60.5992   87.4109    8.7984 N.am    1  UNL1       -0.2641
      5 C          59.9556   86.9271    7.5329 C.3     1  UNL1        0.0967
      6 C          59.4410   87.9147    6.5280 C.3     1  UNL1        0.0418
      7 C          59.5701   89.3863    6.7887 C.3     1  UNL1        0.0848
      8 C          60.2137   89.8701    8.0542 C.3     1  UNL1        0.0418
      9 C          60.7283   88.8825    9.0591 C.3     1  UNL1        0.0967
     10 H          61.8421   87.8730   11.2400 H       1  UNL1        0.1514
     11 N          59.0555   90.3739    5.7838 N.am    1  UNL1       -0.2422
     12 C          57.6215   90.7693    5.5907 C.2     1  UNL1        0.3310
     13 O          56.4503   90.2466    6.3685 O.2     1  UNL1       -0.2501
     14 N          57.5643   91.7793    4.4831 N.am    1  UNL1       -0.1647
     15 C          58.9630   92.0081    3.9917 C.2     1  UNL1        0.0706
     16 C          59.5164   92.8951    2.9162 C.3     1  UNL1        0.0705
     17 C          60.9915   92.9135    2.6445 C.2     1  UNL1       -0.0199
     18 C          61.9131   92.0450    3.4484 C.2     1  UNL1       -0.0029
     19 C          61.3596   91.1579    4.5239 C.2     1  UNL1        0.0156
     20 C          59.8846   91.1395    4.7956 C.2     1  UNL1        0.0668
     21 C          62.2720   85.9195   12.0737 C.3     1  UNL1        0.1499
     22 C          62.9867   86.4016   13.3012 C.2     1  UNL1        0.2435
     23 O          63.1022   85.5089   14.5011 O.2     1  UNL1       -0.2731
     24 N          63.5858   87.7765   13.3288 N.am    1  UNL1       -0.2781
     25 C          64.3005   88.2587   14.5562 C.3     1  UNL1        0.0948
     26 C          64.8996   89.6336   14.5838 C.3     1  UNL1        0.0375
     27 C          64.7841   90.5263   13.3840 C.3     1  UNL1        0.0609
     28 C          64.0694   90.0441   12.1565 C.3     1  UNL1        0.0375
     29 C          63.4703   88.6692   12.1289 C.3     1  UNL1        0.0948
     30 N          65.3832   91.9012   13.4116 N.3     1  UNL1       -0.2738
     31 C          65.9820   92.4330   14.6799 C.3     1  UNL1        0.0720
     32 C          66.5811   93.8078   14.7075 C.3     1  UNL1        0.0174
     33 C          66.5814   94.6508   13.4668 C.3     1  UNL1        0.0029
     34 C          65.9827   94.1191   12.1985 C.3     1  UNL1        0.0174
     35 C          65.3835   92.7442   12.1709 C.3     1  UNL1        0.0720
     36 C          62.0719   84.4497   11.8509 C.3     1  UNL1        0.0290
     37 C          63.7943   82.7187   12.7384 C.3     1  UNL1        0.0001
     38 C          63.2558   83.5584   11.6181 C.3     1  UNL1        0.0021
     39 C          63.9011   83.5067   10.2650 C.3     1  UNL1        0.0001
@<TRIPOS>BOND
     1    37    38    1
     2    38    39    1
     3    38    36    1
     4    21    36    1
     5    21     1    1
     6     1     2   am
     7     2     3    2
     8     2     4   am
     9     4     5    1
    10     5     6    1
    11     6     7    1
    12     7    11    1
    13    11    12   am
    14    12    13    2
    15    12    14    1
    16    14    15    2
    17    15    16    1
    18    16    17    1
    19    17    18    2
    20    18    19    1
    21    19    20    2
    22     7     8    1
    23     8     9    1
    24    21    22    1
    25    22    23    2
    26    22    24   am
    27    24    25    1
    28    25    26    1
    29    26    27    1
    30    27    30    1
    31    30    31    1
    32    31    32    1
    33    32    33    1
    34    33    34    1
    35    34    35    1
    36    27    28    1
    37    28    29    1
    38     9     4    1
    39    29    24    1
    40    20    11    1
    41    35    30    1
    42    20    15    1
    43     1    10    1
@<TRIPOS>MOLECULE
*****
 39 43 0 0 0
SMALL
GASTEIGER

@<TRIPOS>ATOM
      1 N          61.3646   89.3051    9.0866 N.am    1  UNL1       -0.2824
      2 C          61.9414   88.5135   10.2226 C.2     1  UNL1        0.3043
      3 O          61.7919   87.0212   10.2490 O.2     1  UNL1       -0.2526
      4 N          62.6678   89.2141   11.3323 N.am    1  UNL1       -0.2641
      5 C          63.2446   88.4225   12.4684 C.3     1  UNL1        0.0967
      6 C          63.9709   89.1232   13.5781 C.3     1  UNL1        0.0418
      7 C          64.1205   90.6156   13.5518 C.3     1  UNL1        0.0848
      8 C          63.5437   91.4071   12.4157 C.3     1  UNL1        0.0418
      9 C          62.8173   90.7064   11.3060 C.3     1  UNL1        0.0967
     10 H          61.4627   90.2845    9.0693 H       1  UNL1        0.1514
     11 N          64.8468   91.3162   14.6615 N.am    1  UNL1       -0.2422
     12 C          64.2840   91.6493   16.0114 C.2     1  UNL1        0.3310
     13 O          62.8959   91.3402   16.4886 O.2     1  UNL1       -0.2501
     14 N          65.3529   92.3458   16.8003 N.am    1  UNL1       -0.1647
     15 C          66.5764   92.4431   15.9380 C.2     1  UNL1        0.0706
     16 C          67.9348   93.0290   16.1856 C.3     1  UNL1        0.0705
     17 C          68.9805   92.9785   15.1114 C.2     1  UNL1       -0.0199
     18 C          68.6678   92.3422   13.7896 C.2     1  UNL1       -0.0029
     19 C          67.3093   91.7564   13.5419 C.2     1  UNL1        0.0156
     20 C          66.2636   91.8068   14.6161 C.2     1  UNL1        0.0668
     21 C          60.6382   88.6043    7.9769 C.3     1  UNL1        0.1499
     22 C          59.3851   89.2001    7.4071 C.2     1  UNL1        0.2435
     23 O          58.0504   88.8343    7.9856 O.2     1  UNL1       -0.2731
     24 N          59.4668   90.1617    6.2587 N.am    1  UNL1       -0.2781
     25 C          58.2137   90.7575    5.6889 C.3     1  UNL1        0.0948
     26 C          58.2954   91.7191    4.5406 C.3     1  UNL1        0.0375
     27 C          59.6300   92.0849    3.9621 C.3     1  UNL1        0.0609
     28 C          60.8832   91.4891    4.5319 C.3     1  UNL1        0.0375
     29 C          60.8015   90.5275    5.6803 C.3     1  UNL1        0.0948
     30 N          59.7117   93.0465    2.8137 N.3     1  UNL1       -0.2738
     31 C          59.2191   92.6381    1.4571 C.3     1  UNL1        0.0720
     32 C          59.3008   93.5997    0.3088 C.3     1  UNL1        0.0174
     33 C          59.8750   94.9697    0.5171 C.3     1  UNL1        0.0029
     34 C          60.3675   95.3781    1.8738 C.3     1  UNL1        0.0174
     35 C          60.2859   94.4165    3.0221 C.3     1  UNL1        0.0720
     36 C          61.1651   87.3078    7.4370 C.3     1  UNL1        0.0290
     37 C          60.8315   84.7819    6.9282 C.3     1  UNL1        0.0001
     38 C          60.2893   86.0900    7.4229 C.3     1  UNL1        0.0021
     39 C          58.8712   86.1804    7.9035 C.3     1  UNL1        0.0001
@<TRIPOS>BOND
     1    37    38    1
     2    38    39    1
     3    38    36    1
     4    21    36    1
     5    21     1    1
     6     1     2   am
     7     2     3    2
     8     2     4   am
     9     4     5    1
    10     5     6    1
    11     6     7    1
    12     7    11    1
    13    11    12   am
    14    12    13    2
    15    12    14    1
    16    14    15    2
    17    15    16    1
    18    16    17    1
    19    17    18    2
    20    18    19    1
    21    19    20    2
    22     7     8    1
    23     8     9    1
    24    21    22    1
    25    22    23    2
    26    22    24   am
    27    24    25    1
    28    25    26    1
    29    26    27    1
    30    27    30    1
    31    30    31    1
    32    31    32    1
    33    32    33    1
    34    33    34    1
    35    34    35    1
    36    27    28    1
    37    28    29    1
    38     9     4    1
    39    29    24    1
    40    20    11    1
    41    35    30    1
    42    20    15    1
    43     1    10    1
@<TRIPOS>MOLECULE
*****
 39 43 0 0 0
SMALL
GASTEIGER

@<TRIPOS>ATOM
      1 N          61.3217   93.0697    2.4162 N.am    1  UNL1       -0.2824
      2 C          59.9991   92.6564    2.9905 C.2     1  UNL1        0.3043
      3 O          58.7253   93.1506    2.3716 O.2     1  UNL1       -0.2526
      4 N          59.9503   91.7488    4.1838 N.am    1  UNL1       -0.2641
      5 C          58.6277   91.3354    4.7581 C.3     1  UNL1        0.0967
      6 C          58.5789   90.4278    5.9514 C.3     1  UNL1        0.0418
      7 C          59.8528   89.9335    6.5704 C.3     1  UNL1        0.0848
      8 C          61.1753   90.3469    5.9960 C.3     1  UNL1        0.0418
      9 C          61.2241   91.2545    4.8028 C.3     1  UNL1        0.0967
     10 H          62.1578   92.7454    2.8225 H       1  UNL1        0.1514
     11 N          59.8040   89.0259    7.7636 N.am    1  UNL1       -0.2422
     12 C          59.1701   87.6673    7.8126 C.2     1  UNL1        0.3310
     13 O          58.4738   86.9777    6.6770 O.2     1  UNL1       -0.2501
     14 N          59.3549   87.1194    9.1967 N.am    1  UNL1       -0.1647
     15 C          60.1029   88.1393   10.0031 C.2     1  UNL1        0.0706
     16 C          60.5671   88.1473   11.4294 C.3     1  UNL1        0.0705
     17 C          61.3089   89.3336   11.9700 C.2     1  UNL1       -0.0199
     18 C          61.5864   90.5120   11.0843 C.2     1  UNL1       -0.0029
     19 C          61.1222   90.5040    9.6580 C.2     1  UNL1        0.0156
     20 C          60.3804   89.3176    9.1174 C.2     1  UNL1        0.0668
     21 C          61.3705   93.9774    1.2230 C.3     1  UNL1        0.1499
     22 C          60.1696   94.7972    0.8547 C.2     1  UNL1        0.2435
     23 O          59.7439   95.9389    1.7296 O.2     1  UNL1       -0.2731
     24 N          59.3943   94.4753   -0.3884 N.am    1  UNL1       -0.2781
     25 C          58.1934   95.2951   -0.7567 C.3     1  UNL1        0.0948
     26 C          57.4181   94.9732   -1.9999 C.3     1  UNL1        0.0375
     27 C          57.8437   93.8316   -2.8747 C.3     1  UNL1        0.0609
     28 C          59.0447   93.0118   -2.5064 C.3     1  UNL1        0.0375
     29 C          59.8200   93.3336   -1.2632 C.3     1  UNL1        0.0948
     30 N          57.0685   93.5097   -4.1178 N.3     1  UNL1       -0.2738
     31 C          56.9266   92.0851   -4.5653 C.3     1  UNL1        0.0720
     32 C          56.1513   91.7633   -5.8085 C.3     1  UNL1        0.0174
     33 C          55.5180   92.8660   -6.6040 C.3     1  UNL1        0.0029
     34 C          55.6599   94.2906   -6.1565 C.3     1  UNL1        0.0174
     35 C          56.4351   94.6125   -4.9134 C.3     1  UNL1        0.0720
     36 C          62.6201   94.0651    0.3980 C.3     1  UNL1        0.0290
     37 C          64.2283   95.2457    2.0624 C.3     1  UNL1        0.0001
     38 C          63.9581   94.1535    1.0704 C.3     1  UNL1        0.0021
     39 C          65.0259   93.1496    0.7509 C.3     1  UNL1        0.0001
@<TRIPOS>BOND
     1    37    38    1
     2    38    39    1
     3    38    36    1
     4    21    36    1
     5    21     1    1
     6     1     2   am
     7     2     3    2
     8     2     4   am
     9     4     5    1
    10     5     6    1
    11     6     7    1
    12     7    11    1
    13    11    12   am
    14    12    13    2
    15    12    14    1
    16    14    15    2
    17    15    16    1
    18    16    17    1
    19    17    18    2
    20    18    19    1
    21    19    20    2
    22     7     8    1
    23     8     9    1
    24    21    22    1
    25    22    23    2
    26    22    24   am
    27    24    25    1
    28    25    26    1
    29    26    27    1
    30    27    30    1
    31    30    31    1
    32    31    32    1
    33    32    33    1
    34    33    34    1
    35    34    35    1
    36    27    28    1
    37    28    29    1
    38     9     4    1
    39    29    24    1
    40    20    11    1
    41    35    30    1
    42    20    15    1
    43     1    10    1
@<TRIPOS>MOLECULE
*****
 39 43 0 0 0
SMALL
GASTEIGER

@<TRIPOS>ATOM
      1 N          61.1250   89.7445    8.5587 N.am    1  UNL1       -0.2824
      2 C          61.1386   89.9087   10.0496 C.2     1  UNL1        0.3043
      3 O          60.0501   89.2979   10.8815 O.2     1  UNL1       -0.2526
      4 N          62.2408   90.6838   10.7087 N.am    1  UNL1       -0.2641
      5 C          62.2545   90.8481   12.1996 C.3     1  UNL1        0.0967
      6 C          63.3567   91.6232   12.8588 C.3     1  UNL1        0.0418
      7 C          64.4453   92.2340   12.0269 C.3     1  UNL1        0.0848
      8 C          64.4315   92.0698   10.5360 C.3     1  UNL1        0.0418
      9 C          63.3294   91.2947    9.8769 C.3     1  UNL1        0.0967
     10 H          61.8394   90.1454    8.0127 H       1  UNL1        0.1514
     11 N          65.5474   93.0091   12.6860 N.am    1  UNL1       -0.2422
     12 C          66.0382   94.3660   12.2762 C.2     1  UNL1        0.3310
     13 O          65.5130   95.1861   11.1353 O.2     1  UNL1       -0.2501
     14 N          67.1464   94.7589   13.2075 N.am    1  UNL1       -0.1647
     15 C          67.3406   93.6448   14.1930 C.2     1  UNL1        0.0706
     16 C          68.2896   93.4753   15.3422 C.3     1  UNL1        0.0705
     17 C          68.2503   92.2244   16.1690 C.2     1  UNL1       -0.0199
     18 C          67.2621   91.1430   15.8466 C.2     1  UNL1       -0.0029
     19 C          66.3131   91.3125   14.6975 C.2     1  UNL1        0.0156
     20 C          66.3524   92.5633   13.8706 C.2     1  UNL1        0.0668
     21 C          60.0227   88.9693    7.8997 C.3     1  UNL1        0.1499
     22 C          60.1087   87.4747    7.8066 C.2     1  UNL1        0.2435
     23 O          59.4252   86.7526    6.6836 O.2     1  UNL1       -0.2731
     24 N          60.8783   86.7023    8.8367 N.am    1  UNL1       -0.2781
     25 C          60.9644   85.2077    8.7438 C.3     1  UNL1        0.0948
     26 C          61.7340   84.4352    9.7738 C.3     1  UNL1        0.0375
     27 C          62.4175   85.1573   10.8969 C.3     1  UNL1        0.0609
     28 C          62.3315   86.6520   10.9899 C.3     1  UNL1        0.0375
     29 C          61.5619   87.4245    9.9598 C.3     1  UNL1        0.0948
     30 N          63.1871   84.3849   11.9269 N.3     1  UNL1       -0.2738
     31 C          63.5833   82.9635   11.6571 C.3     1  UNL1        0.0720
     32 C          64.3529   82.1911   12.6872 C.3     1  UNL1        0.0174
     33 C          64.7263   82.8400   13.9870 C.3     1  UNL1        0.0029
     34 C          64.3301   84.2613   14.2568 C.3     1  UNL1        0.0174
     35 C          63.5605   85.0338   13.2267 C.3     1  UNL1        0.0720
     36 C          58.8345   89.6889    7.3337 C.3     1  UNL1        0.0290
     37 C          57.6989   90.8918    5.3303 C.3     1  UNL1        0.0001
     38 C          58.9350   90.3703    6.0011 C.3     1  UNL1        0.0021
     39 C          60.2717   90.5300    5.3394 C.3     1  UNL1        0.0001
@<TRIPOS>BOND
     1    37    38    1
     2    38    39    1
     3    38    36    1
     4    21    36    1
     5    21     1    1
     6     1     2   am
     7     2     3    2
     8     2     4   am
     9     4     5    1
    10     5     6    1
    11     6     7    1
    12     7    11    1
    13    11    12   am
    14    12    13    2
    15    12    14    1
    16    14    15    2
    17    15    16    1
    18    16    17    1
    19    17    18    2
    20    18    19    1
    21    19    20    2
    22     7     8    1
    23     8     9    1
    24    21    22    1
    25    22    23    2
    26    22    24   am
    27    24    25    1
    28    25    26    1
    29    26    27    1
    30    27    30    1
    31    30    31    1
    32    31    32    1
    33    32    33    1
    34    33    34    1
    35    34    35    1
    36    27    28    1
    37    28    29    1
    38     9     4    1
    39    29    24    1
    40    20    11    1
    41    35    30    1
    42    20    15    1
    43     1    10    1
