@<TRIPOS>MOLECULE
*****
 31 35 0 0 0
SMALL
GASTEIGER

@<TRIPOS>ATOM
      1 C          65.2761   92.3356   12.8513 C.3     1  UNL1        0.0554
      2 C          64.1617   91.4101   12.4616 C.ar    1  UNL1       -0.0164
      3 C          63.7578   91.2869   11.0223 C.ar    1  UNL1        0.0360
      4 C          62.6435   90.3614   10.6326 C.ar    1  UNL1        0.1761
      5 C          61.9331   89.5592   11.6823 C.ar    1  UNL1        0.1762
      6 C          62.3369   89.6825   13.1216 C.ar    1  UNL1        0.0379
      7 C          63.4513   90.6080   13.5113 C.ar    1  UNL1        0.0039
      8 C          63.8552   90.7312   14.9507 C.3     1  UNL1        0.1366
      9 O          63.1448   89.9290   16.0003 O.3     1  UNL1       -0.3799
     10 C          64.9695   91.6567   15.3403 C.3     1  UNL1        0.0861
     11 C          65.5836   91.9846   16.6690 C.3     1  UNL1        0.2117
     12 O          66.6736   92.9895   16.4405 O.3     1  UNL1       -0.4484
     13 C          66.7332   93.2826   14.9706 C.2     1  UNL1        0.3173
     14 O          67.6797   94.2326   14.2986 O.2     1  UNL1       -0.2501
     15 C          65.6799   92.4588   14.2906 C.3     1  UNL1        0.1134
     16 O          60.8799   88.7355   11.0024 O.3     1  UNL1       -0.4346
     17 C          60.9394   89.0286    9.5325 C.3     1  UNL1        0.4294
     18 O          62.0294   90.0335    9.3040 O.3     1  UNL1       -0.4346
     19 H          62.4572   89.3870   15.5828 H       1  UNL1        0.2108
     20 C          66.1887   95.3001   10.3758 C.ar    1  UNL1        0.1751
     21 C          65.4783   94.4980   11.4254 C.ar    1  UNL1        0.0363
     22 C          65.9865   93.1377   11.8017 C.ar    1  UNL1       -0.0117
     23 C          67.2051   92.5797   11.1282 C.ar    1  UNL1        0.0363
     24 C          67.9156   93.3818   10.0785 C.ar    1  UNL1        0.1751
     25 C          67.4074   94.7421    9.7023 C.ar    1  UNL1        0.2060
     26 C          64.2287   96.8560    9.6776 C.3     1  UNL1        0.2526
     27 O          65.6805   96.6604    9.9996 O.3     1  UNL1       -0.4683
     28 O          69.1342   92.8238    9.4050 O.3     1  UNL1       -0.4683
     29 C          68.9870   91.9234    8.2145 C.3     1  UNL1        0.2526
     30 O          68.1178   95.5443    8.6526 O.3     1  UNL1       -0.4654
     31 C          67.3379   96.4452    7.7415 C.3     1  UNL1        0.2528
@<TRIPOS>BOND
     1    26    27    1
     2    27    20    1
     3    20    21   ar
     4    21    22   ar
     5     1    22    1
     6     1     2    1
     7     2     3   ar
     8     3     4   ar
     9     4     5   ar
    10     5     6   ar
    11     6     7   ar
    12     7     8    1
    13     8     9    1
    14     8    10    1
    15    10    11    1
    16    11    12    1
    17    12    13    1
    18    13    14    2
    19    15    13    1
    20     5    16    1
    21    16    17    1
    22    17    18    1
    23    22    23   ar
    24    23    24   ar
    25    24    28    1
    26    28    29    1
    27    24    25   ar
    28    25    30    1
    29    30    31    1
    30    25    20   ar
    31    15     1    1
    32     7     2   ar
    33    15    10    1
    34    18     4    1
    35     9    19    1
@<TRIPOS>MOLECULE
*****
 31 35 0 0 0
SMALL
GASTEIGER

@<TRIPOS>ATOM
      1 C          62.8748   86.9647   12.1793 C.3     1  UNL1        0.0554
      2 C          62.0073   87.4056   11.0377 C.ar    1  UNL1       -0.0164
      3 C          61.3274   86.3844   10.1746 C.ar    1  UNL1        0.0360
      4 C          60.4599   86.8252    9.0330 C.ar    1  UNL1        0.1761
      5 C          60.2724   88.2872    8.7545 C.ar    1  UNL1        0.1762
      6 C          60.9524   89.3083    9.6176 C.ar    1  UNL1        0.0379
      7 C          61.8199   88.8674   10.7592 C.ar    1  UNL1        0.0039
      8 C          62.4999   89.8886   11.6223 C.3     1  UNL1        0.1366
      9 O          62.3124   91.3506   11.3438 O.3     1  UNL1       -0.3799
     10 C          63.3674   89.4478   12.7639 C.3     1  UNL1        0.0861
     11 C          64.1591   90.2182   13.7786 C.3     1  UNL1        0.2117
     12 O          64.8359   89.2324   14.6842 O.3     1  UNL1       -0.4484
     13 C          64.4625   87.8527   14.2292 C.2     1  UNL1        0.3173
     14 O          64.9169   86.5658   14.8517 O.2     1  UNL1       -0.2501
     15 C          63.5548   87.9858   13.0423 C.3     1  UNL1        0.1134
     16 O          59.3648   88.4204    7.5678 O.3     1  UNL1       -0.4346
     17 C          58.9913   87.0407    7.1128 C.3     1  UNL1        0.4294
     18 O          59.6681   86.0548    8.0184 O.3     1  UNL1       -0.4346
     19 H          61.7273   91.4614   10.5782 H       1  UNL1        0.2108
     20 C          63.6697   83.1151   11.6331 C.ar    1  UNL1        0.1751
     21 C          63.4822   84.5769   11.3547 C.ar    1  UNL1        0.0363
     22 C          63.0623   85.5028   12.4577 C.ar    1  UNL1       -0.0117
     23 C          62.8300   84.9666   13.8392 C.ar    1  UNL1        0.0363
     24 C          63.0174   83.5046   14.1177 C.ar    1  UNL1        0.1751
     25 C          63.4373   82.5789   13.0147 C.ar    1  UNL1        0.2060
     26 C          63.2246   81.0203   10.1621 C.3     1  UNL1        0.2526
     27 O          64.0895   82.1892   10.5301 O.3     1  UNL1       -0.4683
     28 O          62.7851   82.9684   15.4992 O.3     1  UNL1       -0.4683
     29 C          62.7670   83.9021   16.6729 C.3     1  UNL1        0.2526
     30 O          63.6248   81.1169   13.2931 O.3     1  UNL1       -0.4654
     31 C          62.4310   80.2375   13.5203 C.3     1  UNL1        0.2528
@<TRIPOS>BOND
     1    26    27    1
     2    27    20    1
     3    20    21   ar
     4    21    22   ar
     5     1    22    1
     6     1     2    1
     7     2     3   ar
     8     3     4   ar
     9     4     5   ar
    10     5     6   ar
    11     6     7   ar
    12     7     8    1
    13     8     9    1
    14     8    10    1
    15    10    11    1
    16    11    12    1
    17    12    13    1
    18    13    14    2
    19    15    13    1
    20     5    16    1
    21    16    17    1
    22    17    18    1
    23    22    23   ar
    24    23    24   ar
    25    24    28    1
    26    28    29    1
    27    24    25   ar
    28    25    30    1
    29    30    31    1
    30    25    20   ar
    31    15     1    1
    32     7     2   ar
    33    15    10    1
    34    18     4    1
    35     9    19    1
@<TRIPOS>MOLECULE
*****
 31 35 0 0 0
SMALL
GASTEIGER

@<TRIPOS>ATOM
      1 C          62.8748   86.9650   12.1793 C.3     1  UNL1        0.0554
      2 C          62.0073   87.4058   11.0377 C.ar    1  UNL1       -0.0164
      3 C          61.3272   86.3847   10.1747 C.ar    1  UNL1        0.0360
      4 C          60.4597   86.8255    9.0331 C.ar    1  UNL1        0.1761
      5 C          60.2723   88.2874    8.7546 C.ar    1  UNL1        0.1762
      6 C          60.9523   89.3086    9.6175 C.ar    1  UNL1        0.0379
      7 C          61.8198   88.8677   10.7591 C.ar    1  UNL1        0.0039
      8 C          62.4999   89.8889   11.6222 C.3     1  UNL1        0.1366
      9 O          62.3125   91.3509   11.3436 O.3     1  UNL1       -0.3799
     10 C          63.3674   89.4481   12.7637 C.3     1  UNL1        0.0861
     11 C          64.1593   90.2185   13.7783 C.3     1  UNL1        0.2117
     12 O          64.8361   89.2327   14.6839 O.3     1  UNL1       -0.4484
     13 C          64.4625   87.8530   14.2291 C.2     1  UNL1        0.3173
     14 O          64.9169   86.5662   14.8516 O.2     1  UNL1       -0.2501
     15 C          63.5548   87.9861   13.0422 C.3     1  UNL1        0.1134
     16 O          59.3646   88.4206    7.5678 O.3     1  UNL1       -0.4346
     17 C          58.9911   87.0409    7.1129 C.3     1  UNL1        0.4294
     18 O          59.6679   86.0551    8.0185 O.3     1  UNL1       -0.4346
     19 H          61.7274   91.4617   10.5779 H       1  UNL1        0.2108
     20 C          63.0168   83.5050   14.1178 C.ar    1  UNL1        0.1751
     21 C          62.8294   84.9669   13.8392 C.ar    1  UNL1        0.0363
     22 C          63.0622   85.5031   12.4578 C.ar    1  UNL1       -0.0117
     23 C          63.4824   84.5773   11.3549 C.ar    1  UNL1        0.0363
     24 C          63.6698   83.1153   11.6334 C.ar    1  UNL1        0.1751
     25 C          63.4370   82.5792   13.0149 C.ar    1  UNL1        0.2060
     26 C          62.7670   83.9024   16.6731 C.3     1  UNL1        0.2526
     27 O          62.7840   82.9688   15.4992 O.3     1  UNL1       -0.4683
     28 O          64.0901   82.1895   10.5306 O.3     1  UNL1       -0.4683
     29 C          63.2250   81.0210   10.1618 C.3     1  UNL1        0.2526
     30 O          63.6244   81.1172   13.2934 O.3     1  UNL1       -0.4654
     31 C          62.4306   80.2378   13.5199 C.3     1  UNL1        0.2528
@<TRIPOS>BOND
     1    26    27    1
     2    27    20    1
     3    20    21   ar
     4    21    22   ar
     5     1    22    1
     6     1     2    1
     7     2     3   ar
     8     3     4   ar
     9     4     5   ar
    10     5     6   ar
    11     6     7   ar
    12     7     8    1
    13     8     9    1
    14     8    10    1
    15    10    11    1
    16    11    12    1
    17    12    13    1
    18    13    14    2
    19    15    13    1
    20     5    16    1
    21    16    17    1
    22    17    18    1
    23    22    23   ar
    24    23    24   ar
    25    24    28    1
    26    28    29    1
    27    24    25   ar
    28    25    30    1
    29    30    31    1
    30    25    20   ar
    31    15     1    1
    32     7     2   ar
    33    15    10    1
    34    18     4    1
    35     9    19    1
@<TRIPOS>MOLECULE
*****
 31 35 0 0 0
SMALL
GASTEIGER

@<TRIPOS>ATOM
      1 C          64.2295   90.0752   13.1806 C.3     1  UNL1        0.0554
      2 C          65.2472   91.1104   13.5585 C.ar    1  UNL1       -0.0164
      3 C          66.0523   90.9474   14.8136 C.ar    1  UNL1        0.0360
      4 C          67.0700   91.9825   15.1916 C.ar    1  UNL1        0.1761
      5 C          67.2826   93.1806   14.3145 C.ar    1  UNL1        0.1762
      6 C          66.4775   93.3436   13.0594 C.ar    1  UNL1        0.0379
      7 C          65.4598   92.3085   12.6815 C.ar    1  UNL1        0.0039
      8 C          64.6547   92.4715   11.4263 C.3     1  UNL1        0.1366
      9 O          64.8673   93.6696   10.5492 O.3     1  UNL1       -0.3799
     10 C          63.6370   91.4364   11.0483 C.3     1  UNL1        0.0861
     11 C          62.7019   91.3278    9.8805 C.3     1  UNL1        0.2117
     12 O          61.9113   90.0625   10.0360 O.3     1  UNL1       -0.4484
     13 C          62.3578   89.3892   11.2997 C.2     1  UNL1        0.3173
     14 O          61.8304   88.0941   11.8426 O.2     1  UNL1       -0.2501
     15 C          63.4245   90.2383   11.9255 C.3     1  UNL1        0.1134
     16 O          68.3492   94.0297   14.9402 O.3     1  UNL1       -0.4346
     17 C          68.7957   93.3563   16.2040 C.3     1  UNL1        0.4294
     18 O          68.0051   92.0911   16.3594 O.3     1  UNL1       -0.4346
     19 H          65.5548   94.2349   10.9350 H       1  UNL1        0.2108
     20 C          63.3261   87.8576   16.3452 C.ar    1  UNL1        0.1751
     21 C          63.5387   89.0556   15.4682 C.ar    1  UNL1        0.0363
     22 C          64.0169   88.8772   14.0576 C.ar    1  UNL1       -0.0117
     23 C          64.2825   87.5006   13.5243 C.ar    1  UNL1        0.0363
     24 C          64.0699   86.3024   14.4014 C.ar    1  UNL1        0.1751
     25 C          63.5917   86.4809   15.8118 C.ar    1  UNL1        0.2060
     26 C          62.7291   86.8477   18.6633 C.3     1  UNL1        0.2526
     27 O          62.8479   88.0360   17.7558 O.3     1  UNL1       -0.4683
     28 O          64.3355   84.9259   13.8680 O.3     1  UNL1       -0.4683
     29 C          63.5635   84.4173   12.6869 C.3     1  UNL1        0.2526
     30 O          63.3791   85.2828   16.6890 O.3     1  UNL1       -0.4654
     31 C          62.5040   84.1575   16.2223 C.3     1  UNL1        0.2528
@<TRIPOS>BOND
     1    26    27    1
     2    27    20    1
     3    20    21   ar
     4    21    22   ar
     5     1    22    1
     6     1     2    1
     7     2     3   ar
     8     3     4   ar
     9     4     5   ar
    10     5     6   ar
    11     6     7   ar
    12     7     8    1
    13     8     9    1
    14     8    10    1
    15    10    11    1
    16    11    12    1
    17    12    13    1
    18    13    14    2
    19    15    13    1
    20     5    16    1
    21    16    17    1
    22    17    18    1
    23    22    23   ar
    24    23    24   ar
    25    24    28    1
    26    28    29    1
    27    24    25   ar
    28    25    30    1
    29    30    31    1
    30    25    20   ar
    31    15     1    1
    32     7     2   ar
    33    15    10    1
    34    18     4    1
    35     9    19    1
@<TRIPOS>MOLECULE
*****
 31 35 0 0 0
SMALL
GASTEIGER

@<TRIPOS>ATOM
      1 C          64.2430   90.0835   13.1795 C.3     1  UNL1        0.0554
      2 C          65.2624   91.1172   13.5573 C.ar    1  UNL1       -0.0164
      3 C          66.0698   90.9512   14.8105 C.ar    1  UNL1        0.0360
      4 C          67.0891   91.9847   15.1883 C.ar    1  UNL1        0.1761
      5 C          67.3010   93.1842   14.3129 C.ar    1  UNL1        0.1762
      6 C          66.4936   93.3502   13.0597 C.ar    1  UNL1        0.0379
      7 C          65.4742   92.3166   12.6820 C.ar    1  UNL1        0.0039
      8 C          64.6667   92.4826   11.4287 C.3     1  UNL1        0.1366
      9 O          64.8786   93.6821   10.5533 O.3     1  UNL1       -0.3799
     10 C          63.6474   91.4491   11.0509 C.3     1  UNL1        0.0861
     11 C          62.7098   91.3433    9.8848 C.3     1  UNL1        0.2117
     12 O          61.9185   90.0785   10.0395 O.3     1  UNL1       -0.4484
     13 C          62.3670   89.4025   11.3012 C.2     1  UNL1        0.3173
     14 O          61.8395   88.1069   11.8427 O.2     1  UNL1       -0.2501
     15 C          63.4356   90.2495   11.9263 C.3     1  UNL1        0.1134
     16 O          68.3695   94.0313   14.9380 O.3     1  UNL1       -0.4346
     17 C          68.8180   93.3553   16.1996 C.3     1  UNL1        0.4294
     18 O          68.0267   92.0904   16.3544 O.3     1  UNL1       -0.4346
     19 H          65.5673   94.2461   10.9388 H       1  UNL1        0.2108
     20 C          64.1024   86.3101   14.4004 C.ar    1  UNL1        0.1751
     21 C          64.3142   87.5095   13.5251 C.ar    1  UNL1        0.0363
     22 C          64.0311   88.8841   14.0548 C.ar    1  UNL1       -0.0117
     23 C          63.5362   89.0590   15.4599 C.ar    1  UNL1        0.0363
     24 C          63.3243   87.8595   16.3354 C.ar    1  UNL1        0.1751
     25 C          63.6074   86.4851   15.8056 C.ar    1  UNL1        0.2060
     26 C          63.5773   84.3899   12.7309 C.3     1  UNL1        0.2526
     27 O          64.3854   84.9355   13.8706 O.3     1  UNL1       -0.4683
     28 O          62.8293   88.0345   17.7405 O.3     1  UNL1       -0.4683
     29 C          62.7164   86.8465   18.6492 C.3     1  UNL1        0.2526
     30 O          63.3955   85.2855   16.6809 O.3     1  UNL1       -0.4654
     31 C          62.5009   84.1718   16.2235 C.3     1  UNL1        0.2528
@<TRIPOS>BOND
     1    26    27    1
     2    27    20    1
     3    20    21   ar
     4    21    22   ar
     5     1    22    1
     6     1     2    1
     7     2     3   ar
     8     3     4   ar
     9     4     5   ar
    10     5     6   ar
    11     6     7   ar
    12     7     8    1
    13     8     9    1
    14     8    10    1
    15    10    11    1
    16    11    12    1
    17    12    13    1
    18    13    14    2
    19    15    13    1
    20     5    16    1
    21    16    17    1
    22    17    18    1
    23    22    23   ar
    24    23    24   ar
    25    24    28    1
    26    28    29    1
    27    24    25   ar
    28    25    30    1
    29    30    31    1
    30    25    20   ar
    31    15     1    1
    32     7     2   ar
    33    15    10    1
    34    18     4    1
    35     9    19    1
@<TRIPOS>MOLECULE
*****
 31 35 0 0 0
SMALL
GASTEIGER

@<TRIPOS>ATOM
      1 C          62.8940   86.7933   12.2956 C.3     1  UNL1        0.0554
      2 C          63.1053   85.3761   12.7396 C.ar    1  UNL1       -0.0164
      3 C          62.4734   84.2493   11.9773 C.ar    1  UNL1        0.0360
      4 C          62.6847   82.8322   12.4212 C.ar    1  UNL1        0.1761
      5 C          63.5278   82.5418   13.6274 C.ar    1  UNL1        0.1762
      6 C          64.1596   83.6686   14.3896 C.ar    1  UNL1        0.0379
      7 C          63.9483   85.0858   13.9457 C.ar    1  UNL1        0.0039
      8 C          64.5802   86.2127   14.7080 C.3     1  UNL1        0.1366
      9 O          65.4234   85.9223   15.9142 O.3     1  UNL1       -0.3799
     10 C          64.3690   87.6298   14.2641 C.3     1  UNL1        0.0861
     11 C          64.8605   88.9370   14.8116 C.3     1  UNL1        0.2117
     12 O          64.3211   90.0351   13.9438 O.3     1  UNL1       -0.4484
     13 C          63.4962   89.4068   12.8600 C.2     1  UNL1        0.3173
     14 O          62.7694   90.1368   11.7697 O.2     1  UNL1       -0.2501
     15 C          63.5258   87.9201   13.0579 C.3     1  UNL1        0.1134
     16 O          63.5574   81.0552   13.8253 O.3     1  UNL1       -0.4346
     17 C          62.7326   80.4269   12.7415 C.3     1  UNL1        0.4294
     18 O          62.1932   81.5250   11.8737 O.3     1  UNL1       -0.4346
     19 H          65.4570   84.9642   16.0621 H       1  UNL1        0.2108
     20 C          60.2787   88.5516    9.8836 C.ar    1  UNL1        0.1751
     21 C          61.1218   88.2613   11.0897 C.ar    1  UNL1        0.0363
     22 C          62.0509   87.0836   11.0895 C.ar    1  UNL1       -0.0117
     23 C          62.1368   86.1963    9.8832 C.ar    1  UNL1        0.0363
     24 C          61.2937   86.4866    8.6769 C.ar    1  UNL1        0.1751
     25 C          60.3646   87.6643    8.6771 C.ar    1  UNL1        0.2060
     26 C          59.3347   90.6726   11.0498 C.3     1  UNL1        0.2526
     27 O          59.3496   89.7293    9.8837 O.3     1  UNL1       -0.4683
     28 O          61.3795   85.5993    7.4706 O.3     1  UNL1       -0.4683
     29 C          62.6387   84.8340    7.1906 C.3     1  UNL1        0.2526
     30 O          59.5215   87.9546    7.4710 O.3     1  UNL1       -0.4654
     31 C          59.5467   89.3194    6.8492 C.3     1  UNL1        0.2528
@<TRIPOS>BOND
     1    26    27    1
     2    27    20    1
     3    20    21   ar
     4    21    22   ar
     5     1    22    1
     6     1     2    1
     7     2     3   ar
     8     3     4   ar
     9     4     5   ar
    10     5     6   ar
    11     6     7   ar
    12     7     8    1
    13     8     9    1
    14     8    10    1
    15    10    11    1
    16    11    12    1
    17    12    13    1
    18    13    14    2
    19    15    13    1
    20     5    16    1
    21    16    17    1
    22    17    18    1
    23    22    23   ar
    24    23    24   ar
    25    24    28    1
    26    28    29    1
    27    24    25   ar
    28    25    30    1
    29    30    31    1
    30    25    20   ar
    31    15     1    1
    32     7     2   ar
    33    15    10    1
    34    18     4    1
    35     9    19    1
@<TRIPOS>MOLECULE
*****
 31 35 0 0 0
SMALL
GASTEIGER

@<TRIPOS>ATOM
      1 C          62.8949   86.7957   12.2963 C.3     1  UNL1        0.0554
      2 C          63.1064   85.3778   12.7381 C.ar    1  UNL1       -0.0164
      3 C          62.4726   84.2523   11.9755 C.ar    1  UNL1        0.0360
      4 C          62.6841   82.8345   12.4172 C.ar    1  UNL1        0.1761
      5 C          63.5293   82.5422   13.6215 C.ar    1  UNL1        0.1762
      6 C          64.1630   83.6677   14.3840 C.ar    1  UNL1        0.0379
      7 C          63.9516   85.0856   13.9423 C.ar    1  UNL1        0.0039
      8 C          64.5854   86.2112   14.7048 C.3     1  UNL1        0.1366
      9 O          65.4306   85.9189   15.9091 O.3     1  UNL1       -0.3799
     10 C          64.3739   87.6290   14.2632 C.3     1  UNL1        0.0861
     11 C          64.8670   88.9352   14.8115 C.3     1  UNL1        0.2117
     12 O          64.3266   90.0347   13.9461 O.3     1  UNL1       -0.4484
     13 C          63.4994   89.4081   12.8629 C.2     1  UNL1        0.3173
     14 O          62.7709   90.1398   11.7748 O.2     1  UNL1       -0.2501
     15 C          63.5287   87.9212   13.0589 C.3     1  UNL1        0.1134
     16 O          63.5586   81.0553   13.8175 O.3     1  UNL1       -0.4346
     17 C          62.7314   80.4287   12.7343 C.3     1  UNL1        0.4294
     18 O          62.1910   81.5282   11.8689 O.3     1  UNL1       -0.4346
     19 H          65.4641   84.9606   16.0557 H       1  UNL1        0.2108
     20 C          61.2905   86.4964    8.6789 C.ar    1  UNL1        0.1751
     21 C          62.1357   86.2042    9.8831 C.ar    1  UNL1        0.0363
     22 C          62.0498   87.0879   11.0921 C.ar    1  UNL1       -0.0117
     23 C          61.1186   88.2639   11.0968 C.ar    1  UNL1        0.0363
     24 C          60.2734   88.5562    9.8926 C.ar    1  UNL1        0.1751
     25 C          60.3593   87.6724    8.6836 C.ar    1  UNL1        0.2060
     26 C          62.6304   84.8367    7.1957 C.3     1  UNL1        0.2526
     27 O          61.3764   85.6126    7.4699 O.3     1  UNL1       -0.4683
     28 O          59.3422   89.7322    9.8973 O.3     1  UNL1       -0.4683
     29 C          59.3340   90.6776   11.0617 C.3     1  UNL1        0.2526
     30 O          59.5141   87.9647    7.4794 O.3     1  UNL1       -0.4654
     31 C          59.5484   89.3266    6.8516 C.3     1  UNL1        0.2528
@<TRIPOS>BOND
     1    26    27    1
     2    27    20    1
     3    20    21   ar
     4    21    22   ar
     5     1    22    1
     6     1     2    1
     7     2     3   ar
     8     3     4   ar
     9     4     5   ar
    10     5     6   ar
    11     6     7   ar
    12     7     8    1
    13     8     9    1
    14     8    10    1
    15    10    11    1
    16    11    12    1
    17    12    13    1
    18    13    14    2
    19    15    13    1
    20     5    16    1
    21    16    17    1
    22    17    18    1
    23    22    23   ar
    24    23    24   ar
    25    24    28    1
    26    28    29    1
    27    24    25   ar
    28    25    30    1
    29    30    31    1
    30    25    20   ar
    31    15     1    1
    32     7     2   ar
    33    15    10    1
    34    18     4    1
    35     9    19    1
@<TRIPOS>MOLECULE
*****
 31 35 0 0 0
SMALL
GASTEIGER

@<TRIPOS>ATOM
      1 C          62.5823   88.3359   11.7131 C.3     1  UNL1        0.0554
      2 C          62.7893   86.8702   11.9562 C.ar    1  UNL1       -0.0164
      3 C          63.6002   86.4123   13.1321 C.ar    1  UNL1        0.0360
      4 C          63.8072   84.9467   13.3754 C.ar    1  UNL1        0.1761
      5 C          63.2033   83.9390   12.4427 C.ar    1  UNL1        0.1762
      6 C          62.3924   84.3969   11.2668 C.ar    1  UNL1        0.0379
      7 C          62.1854   85.8626   11.0236 C.ar    1  UNL1        0.0039
      8 C          61.3745   86.3206    9.8476 C.3     1  UNL1        0.1366
      9 O          60.7706   85.3129    8.9149 O.3     1  UNL1       -0.3799
     10 C          61.1675   87.7862    9.6044 C.3     1  UNL1        0.0861
     11 C          60.4220   88.5310    8.5369 C.3     1  UNL1        0.2117
     12 O          60.5652   89.9990    8.8100 O.3     1  UNL1       -0.4484
     13 C          61.3992   90.1615   10.0461 C.2     1  UNL1        0.3173
     14 O          61.7919   91.4630   10.6800 O.2     1  UNL1       -0.2501
     15 C          61.7715   88.7938   10.5372 C.3     1  UNL1        0.1134
     16 O          63.5755   82.5714   12.9336 O.3     1  UNL1       -0.4346
     17 C          64.4095   82.7339   14.1698 C.3     1  UNL1        0.4294
     18 O          64.5527   84.2018   14.4428 O.3     1  UNL1       -0.4346
     19 H          60.9987   84.4186    9.2134 H       1  UNL1        0.2108
     20 C          64.6248   91.4719   13.0333 C.ar    1  UNL1        0.1751
     21 C          64.0210   90.4643   12.1006 C.ar    1  UNL1        0.0363
     22 C          63.1862   89.3435   12.6457 C.ar    1  UNL1       -0.0117
     23 C          62.9554   89.2304   14.1235 C.ar    1  UNL1        0.0363
     24 C          63.5593   90.2380   15.0563 C.ar    1  UNL1        0.1751
     25 C          64.3940   91.3588   14.5112 C.ar    1  UNL1        0.2060
     26 C          65.5563   92.8037   11.0063 C.3     1  UNL1        0.2526
     27 O          65.4596   92.5927   12.4882 O.3     1  UNL1       -0.4683
     28 O          63.3285   90.1250   16.5341 O.3     1  UNL1       -0.4683
     29 C          63.0926   88.7804   17.1556 C.3     1  UNL1        0.2526
     30 O          64.9979   92.3665   15.4439 O.3     1  UNL1       -0.4654
     31 C          66.4819   92.3926   15.6610 C.3     1  UNL1        0.2528
@<TRIPOS>BOND
     1    26    27    1
     2    27    20    1
     3    20    21   ar
     4    21    22   ar
     5     1    22    1
     6     1     2    1
     7     2     3   ar
     8     3     4   ar
     9     4     5   ar
    10     5     6   ar
    11     6     7   ar
    12     7     8    1
    13     8     9    1
    14     8    10    1
    15    10    11    1
    16    11    12    1
    17    12    13    1
    18    13    14    2
    19    15    13    1
    20     5    16    1
    21    16    17    1
    22    17    18    1
    23    22    23   ar
    24    23    24   ar
    25    24    28    1
    26    28    29    1
    27    24    25   ar
    28    25    30    1
    29    30    31    1
    30    25    20   ar
    31    15     1    1
    32     7     2   ar
    33    15    10    1
    34    18     4    1
    35     9    19    1
@<TRIPOS>MOLECULE
*****
 31 35 0 0 0
SMALL
GASTEIGER

@<TRIPOS>ATOM
      1 C          62.5766   88.3272   11.7071 C.3     1  UNL1        0.0554
      2 C          62.7840   86.8607   11.9448 C.ar    1  UNL1       -0.0164
      3 C          63.5995   86.3988   13.1159 C.ar    1  UNL1        0.0360
      4 C          63.8070   84.9324   13.3537 C.ar    1  UNL1        0.1761
      5 C          63.1990   83.9278   12.4203 C.ar    1  UNL1        0.1762
      6 C          62.3835   84.3897   11.2491 C.ar    1  UNL1        0.0379
      7 C          62.1760   85.8562   11.0114 C.ar    1  UNL1        0.0039
      8 C          61.3605   86.3181    9.8402 C.3     1  UNL1        0.1366
      9 O          60.7525   85.3136    8.9068 O.3     1  UNL1       -0.3799
     10 C          61.1530   87.7846    9.6024 C.3     1  UNL1        0.0861
     11 C          60.4034   88.5330    8.5404 C.3     1  UNL1        0.2117
     12 O          60.5482   90.0001    8.8175 O.3     1  UNL1       -0.4484
     13 C          61.3872   90.1584   10.0507 C.2     1  UNL1        0.3173
     14 O          61.7829   91.4578   10.6871 O.2     1  UNL1       -0.2501
     15 C          61.7611   88.7891   10.5359 C.3     1  UNL1        0.1134
     16 O          63.5728   82.5586   12.9054 O.3     1  UNL1       -0.4346
     17 C          64.4119   82.7169   14.1387 C.3     1  UNL1        0.4294
     18 O          64.5566   84.1839   14.4157 O.3     1  UNL1       -0.4346
     19 H          60.9815   84.4183    9.2015 H       1  UNL1        0.2108
     20 C          63.5592   90.2243   15.0514 C.ar    1  UNL1        0.1751
     21 C          62.9513   89.2199   14.1180 C.ar    1  UNL1        0.0363
     22 C          63.1845   89.3316   12.6404 C.ar    1  UNL1       -0.0117
     23 C          64.0258   90.4480   12.0964 C.ar    1  UNL1        0.0363
     24 C          64.6339   91.4525   13.0297 C.ar    1  UNL1        0.1751
     25 C          64.4006   91.3407   14.5073 C.ar    1  UNL1        0.2060
     26 C          63.0798   88.7696   17.1499 C.3     1  UNL1        0.2526
     27 O          63.3260   90.1126   16.5290 O.3     1  UNL1       -0.4683
     28 O          65.4752   92.5688   12.4857 O.3     1  UNL1       -0.4683
     29 C          65.4347   92.8938   11.0219 C.3     1  UNL1        0.2526
     30 O          65.0086   92.3452   15.4407 O.3     1  UNL1       -0.4654
     31 C          66.4927   92.3653   15.6577 C.3     1  UNL1        0.2528
@<TRIPOS>BOND
     1    26    27    1
     2    27    20    1
     3    20    21   ar
     4    21    22   ar
     5     1    22    1
     6     1     2    1
     7     2     3   ar
     8     3     4   ar
     9     4     5   ar
    10     5     6   ar
    11     6     7   ar
    12     7     8    1
    13     8     9    1
    14     8    10    1
    15    10    11    1
    16    11    12    1
    17    12    13    1
    18    13    14    2
    19    15    13    1
    20     5    16    1
    21    16    17    1
    22    17    18    1
    23    22    23   ar
    24    23    24   ar
    25    24    28    1
    26    28    29    1
    27    24    25   ar
    28    25    30    1
    29    30    31    1
    30    25    20   ar
    31    15     1    1
    32     7     2   ar
    33    15    10    1
    34    18     4    1
    35     9    19    1
