@<TRIPOS>MOLECULE
*****
 15 17 0 0 0
SMALL
GASTEIGER

@<TRIPOS>ATOM
      1 CL         64.4330   82.9850   10.9203 Cl      1  UNL1       -0.0814
      2 C          63.5081   84.0435   10.3968 C.ar    1  UNL1        0.0682
      3 C          63.5357   84.4113    8.9429 C.ar    1  UNL1        0.0119
      4 C          62.6108   85.4699    8.4194 C.ar    1  UNL1       -0.0033
      5 C          61.6584   86.1607    9.3498 C.ar    1  UNL1       -0.0206
      6 C          61.6309   85.7929   10.8038 C.ar    1  UNL1        0.0080
      7 C          62.5558   84.7343   11.3272 C.ar    1  UNL1        0.0679
      8 CL         62.5282   84.3665   12.7813 Cl      1  UNL1       -0.0814
      9 C          60.7336   87.2193    8.8264 C.3     1  UNL1        0.0348
     10 C          59.8612   86.2889    8.0368 C.3     1  UNL1        0.0726
     11 N          58.7944   87.1067    7.3711 N.3     1  UNL1       -0.2972
     12 C          59.0075   88.5426    7.7493 C.3     1  UNL1        0.0689
     13 C          60.2059   88.6121    8.6486 C.3     1  UNL1        0.0211
     14 C          61.4126   88.3710    9.5065 C.3     1  UNL1        0.0072
     15 H          57.8747   86.7985    7.6865 H       1  UNL1        0.1233
@<TRIPOS>BOND
     1     1     2    1
     2     2     3   ar
     3     3     4   ar
     4     4     5   ar
     5     5     9    1
     6     9    10    1
     7    10    11    1
     8    11    12    1
     9    12    13    1
    10    13    14    1
    11     5     6   ar
    12     6     7   ar
    13     7     8    1
    14     7     2   ar
    15    13     9    1
    16    14     9    1
    17    11    15    1
@<TRIPOS>MOLECULE
*****
 15 17 0 0 0
SMALL
GASTEIGER

@<TRIPOS>ATOM
      1 CL         62.3443   89.4107   11.7021 Cl      1  UNL1       -0.0814
      2 C          63.4373   90.0826   12.4792 C.ar    1  UNL1        0.0682
      3 C          63.8379   89.5507   13.8233 C.ar    1  UNL1        0.0119
      4 C          64.9309   90.2226   14.6005 C.ar    1  UNL1       -0.0033
      5 C          65.6233   91.4263   14.0335 C.ar    1  UNL1       -0.0206
      6 C          65.2227   91.9582   12.6894 C.ar    1  UNL1        0.0080
      7 C          64.1297   91.2863   11.9123 C.ar    1  UNL1        0.0679
      8 CL         63.7292   91.8183   10.5681 Cl      1  UNL1       -0.0814
      9 C          66.7163   92.0982   14.8106 C.3     1  UNL1        0.0348
     10 C          67.8033   91.8367   13.8106 C.3     1  UNL1        0.0726
     11 N          69.0758   92.4245   14.3447 N.3     1  UNL1       -0.2972
     12 C          68.7752   93.0493   15.6748 C.3     1  UNL1        0.0689
     13 C          67.3170   92.8477   15.9628 C.3     1  UNL1        0.0211
     14 C          65.8578   92.5002   15.9732 C.3     1  UNL1        0.0072
     15 H          69.4267   93.1333   13.7006 H       1  UNL1        0.1233
@<TRIPOS>BOND
     1     1     2    1
     2     2     3   ar
     3     3     4   ar
     4     4     5   ar
     5     5     9    1
     6     9    10    1
     7    10    11    1
     8    11    12    1
     9    12    13    1
    10    13    14    1
    11     5     6   ar
    12     6     7   ar
    13     7     8    1
    14     7     2   ar
    15    13     9    1
    16    14     9    1
    17    11    15    1
@<TRIPOS>MOLECULE
*****
 15 17 0 0 0
SMALL
GASTEIGER

@<TRIPOS>ATOM
      1 CL         62.9502   84.9007    7.5744 Cl      1  UNL1       -0.0814
      2 C          63.0138   84.7577    9.0662 C.ar    1  UNL1        0.0682
      3 C          63.8156   83.6484    9.6798 C.ar    1  UNL1        0.0119
      4 C          63.8792   83.5054   11.1716 C.ar    1  UNL1       -0.0033
      5 C          63.1409   84.4716   12.0498 C.ar    1  UNL1       -0.0206
      6 C          62.3391   85.5809   11.4363 C.ar    1  UNL1        0.0080
      7 C          62.2755   85.7239    9.9444 C.ar    1  UNL1        0.0679
      8 CL         61.4736   86.8333    9.3309 Cl      1  UNL1       -0.0814
      9 C          63.2045   84.3286   13.5416 C.3     1  UNL1        0.0348
     10 C          62.5369   82.9865   13.5991 C.3     1  UNL1        0.0726
     11 N          62.4581   82.5691   15.0377 N.3     1  UNL1       -0.2972
     12 C          63.0770   83.6533   15.8694 C.3     1  UNL1        0.0689
     13 C          63.5383   84.7406   14.9447 C.3     1  UNL1        0.0211
     14 C          63.8854   85.6407   13.7961 C.3     1  UNL1        0.0072
     15 H          62.9672   81.6957   15.1730 H       1  UNL1        0.1233
@<TRIPOS>BOND
     1     1     2    1
     2     2     3   ar
     3     3     4   ar
     4     4     5   ar
     5     5     9    1
     6     9    10    1
     7    10    11    1
     8    11    12    1
     9    12    13    1
    10    13    14    1
    11     5     6   ar
    12     6     7   ar
    13     7     8    1
    14     7     2   ar
    15    13     9    1
    16    14     9    1
    17    11    15    1
@<TRIPOS>MOLECULE
*****
 15 17 0 0 0
SMALL
GASTEIGER

@<TRIPOS>ATOM
      1 CL         63.6516   90.2565   14.3896 Cl      1  UNL1       -0.0814
      2 C          64.4366   91.0487   13.3865 C.ar    1  UNL1        0.0682
      3 C          65.7455   91.6678   13.7781 C.ar    1  UNL1        0.0119
      4 C          66.5305   92.4599   12.7750 C.ar    1  UNL1       -0.0033
      5 C          66.0065   92.6329   11.3802 C.ar    1  UNL1       -0.0206
      6 C          64.6976   92.0138   10.9885 C.ar    1  UNL1        0.0080
      7 C          63.9126   91.2217   11.9917 C.ar    1  UNL1        0.0679
      8 CL         62.6037   90.6026   11.6000 Cl      1  UNL1       -0.0814
      9 C          66.7915   93.4250   10.3770 C.3     1  UNL1        0.0348
     10 C          66.0236   94.7019   10.5499 C.3     1  UNL1        0.0726
     11 N          66.6137   95.7264    9.6267 N.3     1  UNL1       -0.2972
     12 C          67.7464   95.0826    8.8833 C.3     1  UNL1        0.0689
     13 C          67.8563   93.6603    9.3470 C.3     1  UNL1        0.0211
     14 C          67.7236   92.3138    9.9944 C.3     1  UNL1        0.0072
     15 H          66.9602   96.5197   10.1661 H       1  UNL1        0.1233
@<TRIPOS>BOND
     1     1     2    1
     2     2     3   ar
     3     3     4   ar
     4     4     5   ar
     5     5     9    1
     6     9    10    1
     7    10    11    1
     8    11    12    1
     9    12    13    1
    10    13    14    1
    11     5     6   ar
    12     6     7   ar
    13     7     8    1
    14     7     2   ar
    15    13     9    1
    16    14     9    1
    17    11    15    1
@<TRIPOS>MOLECULE
*****
 15 17 0 0 0
SMALL
GASTEIGER

@<TRIPOS>ATOM
      1 CL         66.0571   93.2220   11.1925 Cl      1  UNL1       -0.0814
      2 C          65.5184   92.2784   12.2267 C.ar    1  UNL1        0.0682
      3 C          66.2027   92.1519   13.5555 C.ar    1  UNL1        0.0119
      4 C          65.6640   91.2083   14.5897 C.ar    1  UNL1       -0.0033
      5 C          64.4410   90.3914   14.2951 C.ar    1  UNL1       -0.0206
      6 C          63.7567   90.5180   12.9664 C.ar    1  UNL1        0.0080
      7 C          64.2954   91.4615   11.9322 C.ar    1  UNL1        0.0679
      8 CL         63.6110   91.5880   10.6033 Cl      1  UNL1       -0.0814
      9 C          63.9024   89.4479   15.3293 C.3     1  UNL1        0.0348
     10 C          64.2886   88.1895   14.6099 C.3     1  UNL1        0.0726
     11 N          63.8542   87.0242   15.4485 N.3     1  UNL1       -0.2972
     12 C          63.1995   87.5623   16.6862 C.3     1  UNL1        0.0689
     13 C          63.2293   89.0602   16.6125 C.3     1  UNL1        0.0211
     14 C          63.4035   90.5089   16.2649 C.3     1  UNL1        0.0072
     15 H          64.6647   86.4597   15.7031 H       1  UNL1        0.1233
@<TRIPOS>BOND
     1     1     2    1
     2     2     3   ar
     3     3     4   ar
     4     4     5   ar
     5     5     9    1
     6     9    10    1
     7    10    11    1
     8    11    12    1
     9    12    13    1
    10    13    14    1
    11     5     6   ar
    12     6     7   ar
    13     7     8    1
    14     7     2   ar
    15    13     9    1
    16    14     9    1
    17    11    15    1
@<TRIPOS>MOLECULE
*****
 15 17 0 0 0
SMALL
GASTEIGER

@<TRIPOS>ATOM
      1 CL         59.7666   85.9409    7.4439 Cl      1  UNL1       -0.0814
      2 C          60.5027   86.8878    8.3448 C.ar    1  UNL1        0.0682
      3 C          59.8483   88.1626    8.7883 C.ar    1  UNL1        0.0119
      4 C          60.5844   89.1095    9.6892 C.ar    1  UNL1       -0.0033
      5 C          61.9748   88.7816   10.1466 C.ar    1  UNL1       -0.0206
      6 C          62.6291   87.5068    9.7031 C.ar    1  UNL1        0.0080
      7 C          61.8931   86.5599    8.8022 C.ar    1  UNL1        0.0679
      8 CL         62.5475   85.2851    8.3587 Cl      1  UNL1       -0.0814
      9 C          62.7108   89.7285   11.0474 C.3     1  UNL1        0.0348
     10 C          62.7996   88.7945   12.2178 C.3     1  UNL1        0.0726
     11 N          63.5220   89.5047   13.3240 N.3     1  UNL1       -0.2972
     12 C          63.8798   90.8778   12.8372 C.3     1  UNL1        0.0689
     13 C          63.3784   91.0161   11.4303 C.3     1  UNL1        0.0211
     14 C          62.7759   90.8606   10.0654 C.3     1  UNL1        0.0072
     15 H          64.3695   88.9925   13.5687 H       1  UNL1        0.1233
@<TRIPOS>BOND
     1     1     2    1
     2     2     3   ar
     3     3     4   ar
     4     4     5   ar
     5     5     9    1
     6     9    10    1
     7    10    11    1
     8    11    12    1
     9    12    13    1
    10    13    14    1
    11     5     6   ar
    12     6     7   ar
    13     7     8    1
    14     7     2   ar
    15    13     9    1
    16    14     9    1
    17    11    15    1
@<TRIPOS>MOLECULE
*****
 15 17 0 0 0
SMALL
GASTEIGER

@<TRIPOS>ATOM
      1 CL         59.7729   90.3864   10.4740 Cl      1  UNL1       -0.0814
      2 C          60.5054   89.0795   10.3985 C.ar    1  UNL1        0.0682
      3 C          60.0001   87.9873    9.5032 C.ar    1  UNL1        0.0119
      4 C          60.7325   86.6804    9.4276 C.ar    1  UNL1       -0.0033
      5 C          61.9702   86.4658   10.2473 C.ar    1  UNL1       -0.0206
      6 C          62.4755   87.5581   11.1426 C.ar    1  UNL1        0.0080
      7 C          61.7431   88.8649   11.2182 C.ar    1  UNL1        0.0679
      8 CL         62.2484   89.9572   12.1136 Cl      1  UNL1       -0.0814
      9 C          62.7026   85.1590   10.1717 C.3     1  UNL1        0.0348
     10 C          62.4777   84.7702   11.6029 C.3     1  UNL1        0.0726
     11 N          63.1310   83.4392   11.8299 N.3     1  UNL1       -0.2972
     12 C          63.7598   83.0054   10.5389 C.3     1  UNL1        0.0689
     13 C          63.4951   84.0683    9.5142 C.3     1  UNL1        0.0211
     14 C          63.0807   85.2746    8.7248 C.3     1  UNL1        0.0072
     15 H          62.4322   82.7557   12.1214 H       1  UNL1        0.1233
@<TRIPOS>BOND
     1     1     2    1
     2     2     3   ar
     3     3     4   ar
     4     4     5   ar
     5     5     9    1
     6     9    10    1
     7    10    11    1
     8    11    12    1
     9    12    13    1
    10    13    14    1
    11     5     6   ar
    12     6     7   ar
    13     7     8    1
    14     7     2   ar
    15    13     9    1
    16    14     9    1
    17    11    15    1
@<TRIPOS>MOLECULE
*****
 15 17 0 0 0
SMALL
GASTEIGER

@<TRIPOS>ATOM
      1 CL         65.2692   92.0969   12.9991 Cl      1  UNL1       -0.0814
      2 C          64.2977   91.2607   12.2200 C.ar    1  UNL1        0.0682
      3 C          63.8961   91.6725   10.8348 C.ar    1  UNL1        0.0119
      4 C          62.9246   90.8363   10.0557 C.ar    1  UNL1       -0.0033
      5 C          62.3547   89.5883   10.6619 C.ar    1  UNL1       -0.0206
      6 C          62.7563   89.1764   12.0472 C.ar    1  UNL1        0.0080
      7 C          63.7278   90.0126   12.8262 C.ar    1  UNL1        0.0679
      8 CL         64.1295   89.6007   14.2116 Cl      1  UNL1       -0.0814
      9 C          61.3832   88.7521    9.8829 C.3     1  UNL1        0.0348
     10 C          62.2969   87.5760    9.7038 C.3     1  UNL1        0.0726
     11 N          61.5589   86.5305    8.9213 N.3     1  UNL1       -0.2972
     12 C          60.1890   87.0604    8.6169 C.3     1  UNL1        0.0689
     13 C          60.0804   88.4334    9.2111 C.3     1  UNL1        0.0211
     14 C          60.2663   89.7533    9.8991 C.3     1  UNL1        0.0072
     15 H          61.4847   85.6747    9.4713 H       1  UNL1        0.1233
@<TRIPOS>BOND
     1     1     2    1
     2     2     3   ar
     3     3     4   ar
     4     4     5   ar
     5     5     9    1
     6     9    10    1
     7    10    11    1
     8    11    12    1
     9    12    13    1
    10    13    14    1
    11     5     6   ar
    12     6     7   ar
    13     7     8    1
    14     7     2   ar
    15    13     9    1
    16    14     9    1
    17    11    15    1
@<TRIPOS>MOLECULE
*****
 15 17 0 0 0
SMALL
GASTEIGER

@<TRIPOS>ATOM
      1 CL         61.4994   84.3306    6.3695 Cl      1  UNL1       -0.0814
      2 C          61.1678   85.4420    7.3208 C.ar    1  UNL1        0.0682
      3 C          59.8521   86.1541    7.2128 C.ar    1  UNL1        0.0119
      4 C          59.5205   87.2655    8.1640 C.ar    1  UNL1       -0.0033
      5 C          60.5046   87.6647    9.2233 C.ar    1  UNL1       -0.0206
      6 C          61.8203   86.9526    9.3313 C.ar    1  UNL1        0.0080
      7 C          62.1520   85.8413    8.3800 C.ar    1  UNL1        0.0679
      8 CL         63.4678   85.1291    8.4881 Cl      1  UNL1       -0.0814
      9 C          60.1730   88.7761   10.1746 C.3     1  UNL1        0.0348
     10 C          59.7668   87.8904   11.3150 C.3     1  UNL1        0.0726
     11 N          59.3647   88.7680   12.4631 N.3     1  UNL1       -0.2972
     12 C          59.5225   90.1961   12.0322 C.3     1  UNL1        0.0689
     13 C          60.0220   90.2011   10.6178 C.3     1  UNL1        0.0211
     14 C          60.5099   89.8942    9.2330 C.3     1  UNL1        0.0072
     15 H          59.9631   88.5811   13.2677 H       1  UNL1        0.1233
@<TRIPOS>BOND
     1     1     2    1
     2     2     3   ar
     3     3     4   ar
     4     4     5   ar
     5     5     9    1
     6     9    10    1
     7    10    11    1
     8    11    12    1
     9    12    13    1
    10    13    14    1
    11     5     6   ar
    12     6     7   ar
    13     7     8    1
    14     7     2   ar
    15    13     9    1
    16    14     9    1
    17    11    15    1
