@<TRIPOS>MOLECULE
*****
 31 35 0 0 0
SMALL
GASTEIGER

@<TRIPOS>ATOM
      1 C          63.6075   85.8026   15.6431 C.ar    1  UNL1        0.2076
      2 N          63.1611   85.4790   17.0381 N.ar    1  UNL1       -0.1277
      3 N          62.8990   86.7717   17.7525 N.ar    1  UNL1       -0.1271
      4 C          63.1835   87.8942   16.7990 C.ar    1  UNL1        0.1865
      5 C          63.1004   89.3842   16.9495 C.ar    1  UNL1        0.0422
      6 C          63.4552   90.2755   15.7963 C.ar    1  UNL1        0.0241
      7 C          63.8931   89.6766   14.4926 C.ar    1  UNL1        0.1016
      8 N          63.9761   88.1865   14.3422 N.ar    1  UNL1       -0.1625
      9 N          63.6214   87.2953   15.4954 N.ar    1  UNL1       -0.1915
     10 C          64.2478   90.5678   13.3394 C.ar    1  UNL1        0.0238
     11 C          63.4704   90.4832   12.0594 C.ar    1  UNL1        0.0313
     12 C          63.8253   91.3744   10.9062 C.ar    1  UNL1        0.1424
     13 F          63.0479   91.2899    9.6261 F       1  UNL1       -0.2041
     14 C          64.9574   92.3501   11.0330 C.ar    1  UNL1        0.0592
     15 C          65.7348   92.4347   12.3130 C.ar    1  UNL1        0.1424
     16 F          66.8670   93.4105   12.4399 F       1  UNL1       -0.2041
     17 C          65.3800   91.5435   13.4662 C.ar    1  UNL1        0.0313
     18 C          63.9755   84.8081   14.5821 C.3     1  UNL1        0.2721
     19 O          62.9212   84.2691   13.6613 O.3     1  UNL1       -0.4671
     20 C          61.1611   87.0005    9.3379 C.ar    1  UNL1        0.1402
     21 C          60.8921   87.0984   10.8103 C.ar    1  UNL1        0.0371
     22 C          61.5685   86.1553   11.7607 C.ar    1  UNL1        0.0076
     23 C          62.5138   85.1143   11.2386 C.ar    1  UNL1        0.0519
     24 C          63.1901   84.1712   12.1889 C.ar    1  UNL1        0.1421
     25 C          64.1354   83.1302   11.6668 C.ar    1  UNL1        0.0576
     26 C          64.4044   83.0322   10.1943 C.ar    1  UNL1        0.1019
     27 N          63.7281   83.9753    9.2440 N.ar    1  UNL1       -0.2435
     28 C          62.7827   85.0164    9.7662 C.ar    1  UNL1        0.0872
     29 C          62.1064   85.9595    8.8159 C.ar    1  UNL1        0.0561
     30 C          59.2120   87.5369    7.7060 C.3     1  UNL1        0.2525
     31 O          60.4847   87.9436    8.3876 O.3     1  UNL1       -0.4714
@<TRIPOS>BOND
     1    30    31    1
     2    31    20    1
     3    20    21   ar
     4    21    22   ar
     5    22    23   ar
     6    23    24   ar
     7    24    19    1
     8    19    18    1
     9    18     1    1
    10     1     2   ar
    11     2     3   ar
    12     3     4   ar
    13     4     5   ar
    14     5     6   ar
    15     6     7   ar
    16     7    10    1
    17    10    11   ar
    18    11    12   ar
    19    12    13    1
    20    12    14   ar
    21    14    15   ar
    22    15    16    1
    23    15    17   ar
    24     7     8   ar
    25     8     9   ar
    26    24    25   ar
    27    25    26   ar
    28    26    27   ar
    29    27    28   ar
    30    28    29   ar
    31    29    20   ar
    32    28    23   ar
    33     9     1   ar
    34     9     4   ar
    35    17    10   ar
@<TRIPOS>MOLECULE
*****
 31 35 0 0 0
SMALL
GASTEIGER

@<TRIPOS>ATOM
      1 C          62.2852   89.6398   11.8701 C.ar    1  UNL1        0.2076
      2 N          61.6722   90.4835   10.7920 N.ar    1  UNL1       -0.1277
      3 N          61.2004   89.5696    9.7002 N.ar    1  UNL1       -0.1271
      4 C          61.5218   88.1610   10.1035 C.ar    1  UNL1        0.1865
      5 C          61.2906   86.8445    9.4229 C.ar    1  UNL1        0.0422
      6 C          61.7298   85.5713   10.0833 C.ar    1  UNL1        0.0241
      7 C          62.4003   85.6147   11.4244 C.ar    1  UNL1        0.1016
      8 N          62.6315   86.9313   12.1050 N.ar    1  UNL1       -0.1625
      9 N          62.1922   88.2044   11.4446 N.ar    1  UNL1       -0.1915
     10 C          62.8395   84.3416   12.0849 C.ar    1  UNL1        0.0238
     11 C          62.6739   83.0316   11.3732 C.ar    1  UNL1        0.0313
     12 C          63.1132   81.7585   12.0338 C.ar    1  UNL1        0.1424
     13 F          62.9475   80.4485   11.3221 F       1  UNL1       -0.2041
     14 C          63.7181   81.7954   13.4058 C.ar    1  UNL1        0.0592
     15 C          63.8837   83.1054   14.1175 C.ar    1  UNL1        0.1424
     16 F          64.4887   83.1424   15.4896 F       1  UNL1       -0.2041
     17 C          63.4445   84.3785   13.4570 C.ar    1  UNL1        0.0313
     18 C          62.8858   90.1431   13.1492 C.3     1  UNL1        0.2721
     19 O          64.3687   90.0678   13.3621 O.3     1  UNL1       -0.4671
     20 C          66.0114   94.4299   10.6191 C.ar    1  UNL1        0.1402
     21 C          65.2435   93.1961   10.2478 C.ar    1  UNL1        0.0371
     22 C          64.9519   92.1533   11.2859 C.ar    1  UNL1        0.0076
     23 C          65.4283   92.3444   12.6953 C.ar    1  UNL1        0.0519
     24 C          65.1367   91.3016   13.7334 C.ar    1  UNL1        0.1421
     25 C          65.6131   91.4927   15.1428 C.ar    1  UNL1        0.0576
     26 C          66.3811   92.7265   15.5142 C.ar    1  UNL1        0.1019
     27 N          66.6726   93.7693   14.4761 N.ar    1  UNL1       -0.2435
     28 C          66.1962   93.5782   13.0666 C.ar    1  UNL1        0.0872
     29 C          66.4878   94.6209   12.0285 C.ar    1  UNL1        0.0561
     30 C          67.3089   95.1970    8.5030 C.3     1  UNL1        0.2525
     31 O          66.3030   95.4726    9.5810 O.3     1  UNL1       -0.4714
@<TRIPOS>BOND
     1    30    31    1
     2    31    20    1
     3    20    21   ar
     4    21    22   ar
     5    22    23   ar
     6    23    24   ar
     7    24    19    1
     8    19    18    1
     9    18     1    1
    10     1     2   ar
    11     2     3   ar
    12     3     4   ar
    13     4     5   ar
    14     5     6   ar
    15     6     7   ar
    16     7    10    1
    17    10    11   ar
    18    11    12   ar
    19    12    13    1
    20    12    14   ar
    21    14    15   ar
    22    15    16    1
    23    15    17   ar
    24     7     8   ar
    25     8     9   ar
    26    24    25   ar
    27    25    26   ar
    28    26    27   ar
    29    27    28   ar
    30    28    29   ar
    31    29    20   ar
    32    28    23   ar
    33     9     1   ar
    34     9     4   ar
    35    17    10   ar
@<TRIPOS>MOLECULE
*****
 31 35 0 0 0
SMALL
GASTEIGER

@<TRIPOS>ATOM
      1 C          62.7567   90.1115   13.1090 C.ar    1  UNL1        0.2076
      2 N          62.4933   89.7343   14.5367 N.ar    1  UNL1       -0.1277
      3 N          63.5489   90.3755   15.3879 N.ar    1  UNL1       -0.1271
      4 C          64.4647   91.1491   14.4862 C.ar    1  UNL1        0.1865
      5 C          65.6811   91.9809   14.7657 C.ar    1  UNL1        0.0422
      6 C          66.4081   92.6497   13.6367 C.ar    1  UNL1        0.0241
      7 C          65.9184   92.4865   12.2284 C.ar    1  UNL1        0.1016
      8 N          64.7019   91.6546   11.9489 N.ar    1  UNL1       -0.1625
      9 N          63.9751   90.9859   13.0778 N.ar    1  UNL1       -0.1915
     10 C          66.6452   93.1552   11.0994 C.ar    1  UNL1        0.0238
     11 C          67.5295   92.3492   10.1948 C.ar    1  UNL1        0.0313
     12 C          68.2564   93.0180    9.0659 C.ar    1  UNL1        0.1424
     13 F          69.1407   92.2120    8.1613 F       1  UNL1       -0.2041
     14 C          68.0989   94.4927    8.8416 C.ar    1  UNL1        0.0592
     15 C          67.2147   95.2987    9.7462 C.ar    1  UNL1        0.1424
     16 F          67.0571   96.7735    9.5219 F       1  UNL1       -0.2041
     17 C          66.4878   94.6300   10.8751 C.ar    1  UNL1        0.0313
     18 C          61.9443   89.6886   11.9210 C.3     1  UNL1        0.2721
     19 O          61.2792   88.3442   11.9074 O.3     1  UNL1       -0.4671
     20 C          63.8082   83.5645   12.0001 C.ar    1  UNL1        0.1402
     21 C          63.4457   84.5699   13.0525 C.ar    1  UNL1        0.0371
     22 C          62.7235   85.8280   12.6708 C.ar    1  UNL1        0.0076
     23 C          62.3638   86.0807   11.2367 C.ar    1  UNL1        0.0519
     24 C          61.6417   87.3387   10.8550 C.ar    1  UNL1        0.1421
     25 C          61.2820   87.5914    9.4209 C.ar    1  UNL1        0.0576
     26 C          61.6445   86.5859    8.3684 C.ar    1  UNL1        0.1019
     27 N          62.3667   85.3278    8.7500 N.ar    1  UNL1       -0.2435
     28 C          62.7263   85.0752   10.1843 C.ar    1  UNL1        0.0872
     29 C          63.4485   83.8171   10.5660 C.ar    1  UNL1        0.0561
     30 C          63.8632   81.2988   13.2703 C.3     1  UNL1        0.2525
     31 O          64.5303   82.3064   12.3818 O.3     1  UNL1       -0.4714
@<TRIPOS>BOND
     1    30    31    1
     2    31    20    1
     3    20    21   ar
     4    21    22   ar
     5    22    23   ar
     6    23    24   ar
     7    24    19    1
     8    19    18    1
     9    18     1    1
    10     1     2   ar
    11     2     3   ar
    12     3     4   ar
    13     4     5   ar
    14     5     6   ar
    15     6     7   ar
    16     7    10    1
    17    10    11   ar
    18    11    12   ar
    19    12    13    1
    20    12    14   ar
    21    14    15   ar
    22    15    16    1
    23    15    17   ar
    24     7     8   ar
    25     8     9   ar
    26    24    25   ar
    27    25    26   ar
    28    26    27   ar
    29    27    28   ar
    30    28    29   ar
    31    29    20   ar
    32    28    23   ar
    33     9     1   ar
    34     9     4   ar
    35    17    10   ar
@<TRIPOS>MOLECULE
*****
 31 35 0 0 0
SMALL
GASTEIGER

@<TRIPOS>ATOM
      1 C          60.7052   89.1472   10.9208 C.ar    1  UNL1        0.2076
      2 N          60.1232   89.7398    9.6718 N.ar    1  UNL1       -0.1277
      3 N          60.1986   88.7047    8.5889 N.ar    1  UNL1       -0.1271
      4 C          60.8271   87.4722    9.1686 C.ar    1  UNL1        0.1865
      5 C          61.1547   86.1363    8.5704 C.ar    1  UNL1        0.0422
      6 C          61.7956   85.0738    9.4134 C.ar    1  UNL1        0.0241
      7 C          62.1087   85.3474   10.8547 C.ar    1  UNL1        0.1016
      8 N          61.7810   86.6834   11.4529 N.ar    1  UNL1       -0.1625
      9 N          61.1402   87.7458   10.6098 N.ar    1  UNL1       -0.1915
     10 C          62.7494   84.2850   11.6977 C.ar    1  UNL1        0.0238
     11 C          63.6128   84.6707   12.8621 C.ar    1  UNL1        0.0313
     12 C          64.2536   83.6082   13.7051 C.ar    1  UNL1        0.1424
     13 F          65.1169   83.9940   14.8694 F       1  UNL1       -0.2041
     14 C          64.0310   82.1602   13.3837 C.ar    1  UNL1        0.0592
     15 C          63.1676   81.7744   12.2193 C.ar    1  UNL1        0.1424
     16 F          62.9450   80.3262   11.8979 F       1  UNL1       -0.2041
     17 C          62.5269   82.8368   11.3763 C.ar    1  UNL1        0.0313
     18 C          60.8302   89.8353   12.2479 C.3     1  UNL1        0.2721
     19 O          62.1585   89.8889   12.9426 O.3     1  UNL1       -0.4671
     20 C          66.2895   92.5371   15.2169 C.ar    1  UNL1        0.1402
     21 C          65.1992   91.6558   15.7502 C.ar    1  UNL1        0.0371
     22 C          64.1857   91.0668   14.8144 C.ar    1  UNL1        0.0076
     23 C          64.2624   91.3592   13.3452 C.ar    1  UNL1        0.0519
     24 C          63.2488   90.7703   12.4093 C.ar    1  UNL1        0.1421
     25 C          63.3255   91.0627   10.9401 C.ar    1  UNL1        0.0576
     26 C          64.4158   91.9441   10.4067 C.ar    1  UNL1        0.1019
     27 N          65.4294   92.5330   11.3426 N.ar    1  UNL1       -0.2435
     28 C          65.3526   92.2406   12.8119 C.ar    1  UNL1        0.0872
     29 C          66.3662   92.8295   13.7477 C.ar    1  UNL1        0.0561
     30 C          68.7471   92.7375   16.0355 C.3     1  UNL1        0.2525
     31 O          67.3031   93.1261   16.1528 O.3     1  UNL1       -0.4714
@<TRIPOS>BOND
     1    30    31    1
     2    31    20    1
     3    20    21   ar
     4    21    22   ar
     5    22    23   ar
     6    23    24   ar
     7    24    19    1
     8    19    18    1
     9    18     1    1
    10     1     2   ar
    11     2     3   ar
    12     3     4   ar
    13     4     5   ar
    14     5     6   ar
    15     6     7   ar
    16     7    10    1
    17    10    11   ar
    18    11    12   ar
    19    12    13    1
    20    12    14   ar
    21    14    15   ar
    22    15    16    1
    23    15    17   ar
    24     7     8   ar
    25     8     9   ar
    26    24    25   ar
    27    25    26   ar
    28    26    27   ar
    29    27    28   ar
    30    28    29   ar
    31    29    20   ar
    32    28    23   ar
    33     9     1   ar
    34     9     4   ar
    35    17    10   ar
@<TRIPOS>MOLECULE
*****
 31 35 0 0 0
SMALL
GASTEIGER

@<TRIPOS>ATOM
      1 C          61.0114   89.6345   10.1188 C.ar    1  UNL1        0.2076
      2 N          60.2498   89.7856    8.8354 N.ar    1  UNL1       -0.1277
      3 N          60.1105   88.4265    8.2163 N.ar    1  UNL1       -0.1271
      4 C          60.7861   87.4354    9.1170 C.ar    1  UNL1        0.1865
      5 C          60.9662   85.9496    9.0185 C.ar    1  UNL1        0.0422
      6 C          61.7031   85.2102   10.0958 C.ar    1  UNL1        0.0241
      7 C          62.2599   85.9569   11.2715 C.ar    1  UNL1        0.1016
      8 N          62.0797   87.4428   11.3701 N.ar    1  UNL1       -0.1625
      9 N          61.3429   88.1820   10.2928 N.ar    1  UNL1       -0.1915
     10 C          62.9967   85.2176   12.3488 C.ar    1  UNL1        0.0238
     11 C          63.6265   85.9735   13.4810 C.ar    1  UNL1        0.0313
     12 C          64.3634   85.2342   14.5583 C.ar    1  UNL1        0.1424
     13 F          64.9932   85.9901   15.6905 F       1  UNL1       -0.2041
     14 C          64.4705   83.7391   14.5033 C.ar    1  UNL1        0.0592
     15 C          63.8407   82.9832   13.3711 C.ar    1  UNL1        0.1424
     16 F          63.9478   81.4880   13.3161 F       1  UNL1       -0.2041
     17 C          63.1038   83.7225   12.2938 C.ar    1  UNL1        0.0313
     18 C          61.3774   90.7416   11.0625 C.3     1  UNL1        0.2721
     19 O          62.8196   91.0306   11.3563 O.3     1  UNL1       -0.4671
     20 C          67.3738   92.4356   13.9128 C.ar    1  UNL1        0.1402
     21 C          66.8127   92.7262   12.5524 C.ar    1  UNL1        0.0371
     22 C          65.4817   92.1610   12.1537 C.ar    1  UNL1        0.0076
     23 C          64.7118   91.3052   13.1154 C.ar    1  UNL1        0.0519
     24 C          63.3807   90.7400   12.7167 C.ar    1  UNL1        0.1421
     25 C          62.6108   89.8843   13.6784 C.ar    1  UNL1        0.0576
     26 C          63.1719   89.5937   15.0388 C.ar    1  UNL1        0.1019
     27 N          64.5029   90.1589   15.4375 N.ar    1  UNL1       -0.2435
     28 C          65.2728   91.0147   14.4758 C.ar    1  UNL1        0.0872
     29 C          66.6039   91.5799   14.8745 C.ar    1  UNL1        0.0561
     30 C          68.9251   93.4826   15.7148 C.3     1  UNL1        0.2525
     31 O          68.7048   93.0008   14.3115 O.3     1  UNL1       -0.4714
@<TRIPOS>BOND
     1    30    31    1
     2    31    20    1
     3    20    21   ar
     4    21    22   ar
     5    22    23   ar
     6    23    24   ar
     7    24    19    1
     8    19    18    1
     9    18     1    1
    10     1     2   ar
    11     2     3   ar
    12     3     4   ar
    13     4     5   ar
    14     5     6   ar
    15     6     7   ar
    16     7    10    1
    17    10    11   ar
    18    11    12   ar
    19    12    13    1
    20    12    14   ar
    21    14    15   ar
    22    15    16    1
    23    15    17   ar
    24     7     8   ar
    25     8     9   ar
    26    24    25   ar
    27    25    26   ar
    28    26    27   ar
    29    27    28   ar
    30    28    29   ar
    31    29    20   ar
    32    28    23   ar
    33     9     1   ar
    34     9     4   ar
    35    17    10   ar
@<TRIPOS>MOLECULE
*****
 31 35 0 0 0
SMALL
GASTEIGER

@<TRIPOS>ATOM
      1 C          63.1502   90.1311   13.8963 C.ar    1  UNL1        0.2076
      2 N          62.9021   89.9675   15.3665 N.ar    1  UNL1       -0.1277
      3 N          63.8404   90.8799   16.0993 N.ar    1  UNL1       -0.1271
      4 C          64.6685   91.6075   15.0819 C.ar    1  UNL1        0.1865
      5 C          65.7558   92.6315   15.2193 C.ar    1  UNL1        0.0422
      6 C          66.4166   93.1929   13.9952 C.ar    1  UNL1        0.0241
      7 C          65.9899   92.7301   12.6337 C.ar    1  UNL1        0.1016
      8 N          64.9026   91.7060   12.4963 N.ar    1  UNL1       -0.1625
      9 N          64.2419   91.1447   13.7203 N.ar    1  UNL1       -0.1915
     10 C          66.6507   93.2913   11.4096 C.ar    1  UNL1        0.0238
     11 C          67.5059   92.4102   10.5481 C.ar    1  UNL1        0.0313
     12 C          68.1666   92.9715    9.3240 C.ar    1  UNL1        0.1424
     13 F          69.0218   92.0904    8.4626 F       1  UNL1       -0.2041
     14 C          67.9721   94.4139    8.9614 C.ar    1  UNL1        0.0592
     15 C          67.1169   95.2951    9.8229 C.ar    1  UNL1        0.1424
     16 F          66.9223   96.7376    9.4603 F       1  UNL1       -0.2041
     17 C          66.4562   94.7338   11.0470 C.ar    1  UNL1        0.0313
     18 C          62.4325   89.4081   12.7952 C.3     1  UNL1        0.2721
     19 O          63.0236   88.1612   12.2070 O.3     1  UNL1       -0.4671
     20 C          62.9803   82.7560   12.0297 C.ar    1  UNL1        0.1402
     21 C          62.4472   83.8304   11.1290 C.ar    1  UNL1        0.0371
     22 C          62.6393   85.2740   11.4883 C.ar    1  UNL1        0.0076
     23 C          63.3645   85.6432   12.7484 C.ar    1  UNL1        0.0519
     24 C          63.5567   87.0868   13.1077 C.ar    1  UNL1        0.1421
     25 C          64.2819   87.4559   14.3677 C.ar    1  UNL1        0.0576
     26 C          64.8150   86.3815   15.2685 C.ar    1  UNL1        0.1019
     27 N          64.6229   84.9379   14.9092 N.ar    1  UNL1       -0.2435
     28 C          63.8976   84.5687   13.6491 C.ar    1  UNL1        0.0872
     29 C          63.7055   83.1251   13.2898 C.ar    1  UNL1        0.0561
     30 C          62.6440   80.2831   12.7519 C.3     1  UNL1        0.2525
     31 O          62.7881   81.3124   11.6704 O.3     1  UNL1       -0.4714
@<TRIPOS>BOND
     1    30    31    1
     2    31    20    1
     3    20    21   ar
     4    21    22   ar
     5    22    23   ar
     6    23    24   ar
     7    24    19    1
     8    19    18    1
     9    18     1    1
    10     1     2   ar
    11     2     3   ar
    12     3     4   ar
    13     4     5   ar
    14     5     6   ar
    15     6     7   ar
    16     7    10    1
    17    10    11   ar
    18    11    12   ar
    19    12    13    1
    20    12    14   ar
    21    14    15   ar
    22    15    16    1
    23    15    17   ar
    24     7     8   ar
    25     8     9   ar
    26    24    25   ar
    27    25    26   ar
    28    26    27   ar
    29    27    28   ar
    30    28    29   ar
    31    29    20   ar
    32    28    23   ar
    33     9     1   ar
    34     9     4   ar
    35    17    10   ar
@<TRIPOS>MOLECULE
*****
 31 35 0 0 0
SMALL
GASTEIGER

@<TRIPOS>ATOM
      1 C          61.6343   85.8632    8.6675 C.ar    1  UNL1        0.2076
      2 N          60.4337   85.7281    7.7786 N.ar    1  UNL1       -0.1277
      3 N          59.6630   87.0134    7.8420 N.ar    1  UNL1       -0.1271
      4 C          60.3874   87.9430    8.7701 C.ar    1  UNL1        0.1865
      5 C          60.0950   89.3447    9.2165 C.ar    1  UNL1        0.0422
      6 C          61.0209   90.0358   10.1732 C.ar    1  UNL1        0.0241
      7 C          62.2393   89.3249   10.6834 C.ar    1  UNL1        0.1016
      8 N          62.5317   87.9230   10.2369 N.ar    1  UNL1       -0.1625
      9 N          61.6057   87.2321    9.2802 N.ar    1  UNL1       -0.1915
     10 C          63.1652   90.0158   11.6400 C.ar    1  UNL1        0.0238
     11 C          63.8026   91.3188   11.2579 C.ar    1  UNL1        0.0313
     12 C          64.7286   92.0097   12.2147 C.ar    1  UNL1        0.1424
     13 F          65.3659   93.3127   11.8326 F       1  UNL1       -0.2041
     14 C          65.0171   91.3977   13.5533 C.ar    1  UNL1        0.0592
     15 C          64.3798   90.0948   13.9354 C.ar    1  UNL1        0.1424
     16 F          64.6683   89.4827   15.2741 F       1  UNL1       -0.2041
     17 C          63.4538   89.4038   12.9787 C.ar    1  UNL1        0.0313
     18 C          62.6801   84.8137    8.9024 C.3     1  UNL1        0.2721
     19 O          63.5270   84.8626   10.1394 O.3     1  UNL1       -0.4671
     20 C          63.5418   85.0848   15.5431 C.ar    1  UNL1        0.1402
     21 C          63.7370   86.1037   14.4598 C.ar    1  UNL1        0.0371
     22 C          63.6670   85.6900   13.0196 C.ar    1  UNL1        0.0076
     23 C          63.4018   84.2574   12.6629 C.ar    1  UNL1        0.0519
     24 C          63.3318   83.8437   11.2227 C.ar    1  UNL1        0.1421
     25 C          63.0666   82.4111   10.8660 C.ar    1  UNL1        0.0576
     26 C          62.8714   81.3922   11.9494 C.ar    1  UNL1        0.1019
     27 N          62.9413   81.8059   13.3895 N.ar    1  UNL1       -0.2435
     28 C          63.2066   83.2385   13.7462 C.ar    1  UNL1        0.0872
     29 C          63.2766   83.6522   15.1864 C.ar    1  UNL1        0.0561
     30 C          62.6625   86.5316   17.5138 C.3     1  UNL1        0.2525
     31 O          63.6118   85.4985   16.9833 O.3     1  UNL1       -0.4714
@<TRIPOS>BOND
     1    30    31    1
     2    31    20    1
     3    20    21   ar
     4    21    22   ar
     5    22    23   ar
     6    23    24   ar
     7    24    19    1
     8    19    18    1
     9    18     1    1
    10     1     2   ar
    11     2     3   ar
    12     3     4   ar
    13     4     5   ar
    14     5     6   ar
    15     6     7   ar
    16     7    10    1
    17    10    11   ar
    18    11    12   ar
    19    12    13    1
    20    12    14   ar
    21    14    15   ar
    22    15    16    1
    23    15    17   ar
    24     7     8   ar
    25     8     9   ar
    26    24    25   ar
    27    25    26   ar
    28    26    27   ar
    29    27    28   ar
    30    28    29   ar
    31    29    20   ar
    32    28    23   ar
    33     9     1   ar
    34     9     4   ar
    35    17    10   ar
@<TRIPOS>MOLECULE
*****
 31 35 0 0 0
SMALL
GASTEIGER

@<TRIPOS>ATOM
      1 C          61.9050   88.3015   10.6736 C.ar    1  UNL1        0.2076
      2 N          61.9163   86.9489   11.3220 N.ar    1  UNL1       -0.1277
      3 N          61.0269   86.0440   10.5221 N.ar    1  UNL1       -0.1271
      4 C          60.4658   86.8373    9.3792 C.ar    1  UNL1        0.1865
      5 C          59.5309   86.4694    8.2655 C.ar    1  UNL1        0.0422
      6 C          59.1387   87.4968    7.2453 C.ar    1  UNL1        0.0241
      7 C          59.6814   88.8920    7.3390 C.ar    1  UNL1        0.1016
      8 N          60.6164   89.2599    8.4528 N.ar    1  UNL1       -0.1625
      9 N          61.0086   88.2325    9.4729 N.ar    1  UNL1       -0.1915
     10 C          59.2893   89.9194    6.3189 C.ar    1  UNL1        0.0238
     11 C          60.3439   90.6089    5.5050 C.ar    1  UNL1        0.0313
     12 C          59.9516   91.6363    4.4849 C.ar    1  UNL1        0.1424
     13 F          61.0063   92.3258    3.6711 F       1  UNL1       -0.2041
     14 C          58.5049   91.9742    4.2786 C.ar    1  UNL1        0.0592
     15 C          57.4503   91.2847    5.0925 C.ar    1  UNL1        0.1424
     16 F          56.0034   91.6226    4.8862 F       1  UNL1       -0.2041
     17 C          57.8424   90.2573    6.1126 C.ar    1  UNL1        0.0313
     18 C          62.6580   89.5108   11.1434 C.3     1  UNL1        0.2721
     19 O          62.3583   90.1055   12.4875 O.3     1  UNL1       -0.4671
     20 C          66.4219   93.4370   11.2077 C.ar    1  UNL1        0.1402
     21 C          65.3297   92.7779   10.4188 C.ar    1  UNL1        0.0371
     22 C          64.3392   91.8871   11.1084 C.ar    1  UNL1        0.0076
     23 C          64.4410   91.6554   12.5868 C.ar    1  UNL1        0.0519
     24 C          63.4506   90.7647   13.2764 C.ar    1  UNL1        0.1421
     25 C          63.5524   90.5330   14.7549 C.ar    1  UNL1        0.0576
     26 C          64.6447   91.1922   15.5439 C.ar    1  UNL1        0.1019
     27 N          65.6352   92.0830   14.8543 N.ar    1  UNL1       -0.2435
     28 C          65.5333   92.3146   13.3757 C.ar    1  UNL1        0.0872
     29 C          66.5238   93.2054   12.6861 C.ar    1  UNL1        0.0561
     30 C          68.1029   93.8583    9.2720 C.3     1  UNL1        0.2525
     31 O          67.4124   94.3278   10.5181 O.3     1  UNL1       -0.4714
@<TRIPOS>BOND
     1    30    31    1
     2    31    20    1
     3    20    21   ar
     4    21    22   ar
     5    22    23   ar
     6    23    24   ar
     7    24    19    1
     8    19    18    1
     9    18     1    1
    10     1     2   ar
    11     2     3   ar
    12     3     4   ar
    13     4     5   ar
    14     5     6   ar
    15     6     7   ar
    16     7    10    1
    17    10    11   ar
    18    11    12   ar
    19    12    13    1
    20    12    14   ar
    21    14    15   ar
    22    15    16    1
    23    15    17   ar
    24     7     8   ar
    25     8     9   ar
    26    24    25   ar
    27    25    26   ar
    28    26    27   ar
    29    27    28   ar
    30    28    29   ar
    31    29    20   ar
    32    28    23   ar
    33     9     1   ar
    34     9     4   ar
    35    17    10   ar
@<TRIPOS>MOLECULE
*****
 31 35 0 0 0
SMALL
GASTEIGER

@<TRIPOS>ATOM
      1 C          61.5751   88.6549   10.8900 C.ar    1  UNL1        0.2076
      2 N          61.6846   87.3049   11.5345 N.ar    1  UNL1       -0.1277
      3 N          60.9969   86.3103   10.6469 N.ar    1  UNL1       -0.1271
      4 C          60.4623   87.0457    9.4538 C.ar    1  UNL1        0.1865
      5 C          59.6964   86.5831    8.2500 C.ar    1  UNL1        0.0422
      6 C          59.2877   87.5695    7.1964 C.ar    1  UNL1        0.0241
      7 C          59.6450   89.0185    7.3467 C.ar    1  UNL1        0.1016
      8 N          60.4110   89.4811    8.5505 N.ar    1  UNL1       -0.1625
      9 N          60.8196   88.4947    9.6041 N.ar    1  UNL1       -0.1915
     10 C          59.2364   90.0049    6.2931 C.ar    1  UNL1        0.0238
     11 C          60.2802   90.6893    5.4612 C.ar    1  UNL1        0.0313
     12 C          59.8714   91.6758    4.4077 C.ar    1  UNL1        0.1424
     13 F          60.9152   92.3602    3.5758 F       1  UNL1       -0.2041
     14 C          58.4190   91.9777    4.1860 C.ar    1  UNL1        0.0592
     15 C          57.3752   91.2933    5.0179 C.ar    1  UNL1        0.1424
     16 F          55.9227   91.5953    4.7963 F       1  UNL1       -0.2041
     17 C          57.7839   90.3069    6.0714 C.ar    1  UNL1        0.0313
     18 C          62.1245   89.9397   11.4357 C.3     1  UNL1        0.2721
     19 O          63.5108   89.9798   12.0070 O.3     1  UNL1       -0.4671
     20 C          66.8634   93.2132   14.7557 C.ar    1  UNL1        0.1402
     21 C          66.6610   92.9225   13.2982 C.ar    1  UNL1        0.0371
     22 C          65.6109   91.9416   12.8678 C.ar    1  UNL1        0.0076
     23 C          64.7633   91.2514   13.8949 C.ar    1  UNL1        0.0519
     24 C          63.7132   90.2705   13.4646 C.ar    1  UNL1        0.1421
     25 C          62.8656   89.5803   14.4917 C.ar    1  UNL1        0.0576
     26 C          63.0680   89.8710   15.9493 C.ar    1  UNL1        0.1019
     27 N          64.1181   90.8519   16.3797 N.ar    1  UNL1       -0.2435
     28 C          64.9657   91.5421   15.3525 C.ar    1  UNL1        0.0872
     29 C          66.0158   92.5230   15.7829 C.ar    1  UNL1        0.0561
     30 C          69.0712   93.7349   16.0219 C.3     1  UNL1        0.2525
     31 O          67.9135   94.1941   15.1861 O.3     1  UNL1       -0.4714
@<TRIPOS>BOND
     1    30    31    1
     2    31    20    1
     3    20    21   ar
     4    21    22   ar
     5    22    23   ar
     6    23    24   ar
     7    24    19    1
     8    19    18    1
     9    18     1    1
    10     1     2   ar
    11     2     3   ar
    12     3     4   ar
    13     4     5   ar
    14     5     6   ar
    15     6     7   ar
    16     7    10    1
    17    10    11   ar
    18    11    12   ar
    19    12    13    1
    20    12    14   ar
    21    14    15   ar
    22    15    16    1
    23    15    17   ar
    24     7     8   ar
    25     8     9   ar
    26    24    25   ar
    27    25    26   ar
    28    26    27   ar
    29    27    28   ar
    30    28    29   ar
    31    29    20   ar
    32    28    23   ar
    33     9     1   ar
    34     9     4   ar
    35    17    10   ar
