@<TRIPOS>MOLECULE
*****
 37 39 0 0 0
SMALL
GASTEIGER

@<TRIPOS>ATOM
      1 C          62.3398   86.5030   10.7236 C.3     1  UNL1        0.1811
      2 O          63.1239   86.4427   12.0009 O.3     1  UNL1       -0.3784
      3 H          62.9100   87.2144   12.5483 H       1  UNL1        0.2106
      4 C          61.5556   86.5632    9.4463 C.3     1  UNL1        0.4197
      5 F          60.7714   86.6235    8.1691 F       1  UNL1       -0.1676
      6 F          60.3153   86.8917   10.2233 F       1  UNL1       -0.1676
      7 F          62.7959   86.2348    8.6693 F       1  UNL1       -0.1676
      8 C          61.7117   87.7899   11.1700 C.3     1  UNL1        0.0807
      9 C          65.3738   93.0731   11.6998 C.2     1  UNL1        0.1857
     10 C          64.6124   92.2305   10.7199 C.2     1  UNL1        0.0359
     11 C          63.8823   91.0076   11.1907 C.2     1  UNL1        0.0095
     12 C          63.0535   89.9909   10.4629 C.2     1  UNL1        0.0124
     13 C          62.5729   88.9824   11.4639 C.2     1  UNL1        0.0568
     14 N          63.1044   89.3757   12.8102 N.2     1  UNL1       -0.2661
     15 C          63.9137   90.6274   12.6414 C.3     1  UNL1        0.1661
     16 C          64.6752   91.4700   13.6213 C.2     1  UNL1        0.1025
     17 N          65.4053   92.6928   13.1504 N.2     1  UNL1       -0.2281
     18 S          66.1039   94.2959   11.2289 S.O2    1  UNL1        0.0250
     19 O          66.1077   94.8329   12.6295 O.2     1  UNL1       -0.1672
     20 O          66.1001   93.7589    9.8283 O.2     1  UNL1       -0.1672
     21 C          67.2293   95.6479    9.3169 C.3     1  UNL1        0.0276
     22 C          66.8339   95.5188   10.7581 C.3     1  UNL1        0.1577
     23 C          62.9678   85.2160   10.2773 C.3     1  UNL1        0.0398
     24 C          62.9969   84.0353   11.2021 C.3     1  UNL1        0.0216
     25 C          61.7015   84.4816   11.8125 C.3     1  UNL1        0.0045
     26 C          64.2924   83.5891   10.5916 C.3     1  UNL1        0.0045
     27 C          63.0260   82.8547   12.1269 C.ar    1  UNL1       -0.0184
     28 C          62.5184   81.5230   11.6591 C.ar    1  UNL1       -0.0041
     29 C          62.5474   80.3423   12.5839 C.ar    1  UNL1       -0.0003
     30 C          63.0841   80.4934   13.9765 C.ar    1  UNL1        0.0001
     31 C          63.5917   81.8252   14.4442 C.ar    1  UNL1        0.0042
     32 C          63.5627   83.0058   13.5193 C.ar    1  UNL1        0.0492
     33 C          64.0703   84.3376   13.9871 C.2     1  UNL1        0.2424
     34 N          65.5391   84.6387   13.9409 N.am    1  UNL1       -0.3253
     35 O          63.1092   85.3682   14.5010 O.2     1  UNL1       -0.2704
     36 H          66.1699   83.9623   13.6036 H       1  UNL1        0.1453
     37 H          65.8722   85.5128   14.2479 H       1  UNL1        0.1453
@<TRIPOS>BOND
     1    21    22    1
     2    22    18    1
     3    18    19    2
     4    18    20    2
     5    18     9    1
     6     9    10    2
     7    10    11    1
     8    11    12    2
     9    12    13    1
    10    13     8    1
    11     8     1    1
    12     1     2    1
    13     1    23    1
    14    23    24    1
    15    24    25    1
    16    24    26    1
    17    24    27    1
    18    27    28   ar
    19    28    29   ar
    20    29    30   ar
    21    30    31   ar
    22    31    32   ar
    23    32    33    1
    24    33    34   am
    25    33    35    2
    26     1     4    1
    27     4     5    1
    28     4     6    1
    29     4     7    1
    30    13    14    2
    31    14    15    1
    32    15    16    1
    33    16    17    2
    34    17     9    1
    35    15    11    1
    36    32    27   ar
    37     2     3    1
    38    34    36    1
    39    34    37    1
@<TRIPOS>MOLECULE
*****
 37 39 0 0 0
SMALL
GASTEIGER

@<TRIPOS>ATOM
      1 C          63.6712   86.8331   15.7618 C.3     1  UNL1        0.1811
      2 O          64.2364   87.0550   14.3902 O.3     1  UNL1       -0.3784
      3 H          64.2425   88.0047   14.1928 H       1  UNL1        0.2106
      4 C          63.1059   86.6111   17.1334 C.3     1  UNL1        0.4197
      5 F          62.5407   86.3891   18.5049 F       1  UNL1       -0.1676
      6 F          62.3316   87.8908   17.0214 F       1  UNL1       -0.1676
      7 F          63.8803   85.3313   17.2454 F       1  UNL1       -0.1676
      8 C          63.4813   88.3122   15.9229 C.3     1  UNL1        0.0807
      9 C          65.4452   92.5157   11.4421 C.2     1  UNL1        0.1857
     10 C          65.7686   91.9657   12.7996 C.2     1  UNL1        0.0359
     11 C          64.8920   90.9129   13.4107 C.2     1  UNL1        0.0095
     12 C          64.9592   90.1883   14.7223 C.2     1  UNL1        0.0124
     13 C          63.8007   89.2376   14.7863 C.2     1  UNL1        0.0568
     14 N          63.0176   89.3746   13.5144 N.2     1  UNL1       -0.2661
     15 C          63.6921   90.4101   12.6641 C.3     1  UNL1        0.1661
     16 C          63.3687   90.9601   11.3065 C.2     1  UNL1        0.1025
     17 N          64.2452   92.0128   10.6955 N.2     1  UNL1       -0.2281
     18 S          66.3217   93.5684   10.8311 S.O2    1  UNL1        0.0250
     19 O          65.1077   94.3790   10.4860 O.2     1  UNL1       -0.1672
     20 O          67.5358   92.7579   11.1761 O.2     1  UNL1       -0.1672
     21 C          67.9684   94.3221    8.9682 C.3     1  UNL1        0.0276
     22 C          67.1982   94.6213   10.2201 C.3     1  UNL1        0.1577
     23 C          63.8611   85.3539   15.6007 C.3     1  UNL1        0.0398
     24 C          63.6851   84.7174   14.2538 C.3     1  UNL1        0.0216
     25 C          62.2062   84.9545   14.3351 C.3     1  UNL1        0.0045
     26 C          65.1641   84.4804   14.1726 C.3     1  UNL1        0.0045
     27 C          63.5091   84.0809   12.9070 C.ar    1  UNL1       -0.0184
     28 C          63.5625   84.9230   11.6668 C.ar    1  UNL1       -0.0041
     29 C          63.3864   84.2865   10.3200 C.ar    1  UNL1       -0.0003
     30 C          63.1570   82.8079   10.2134 C.ar    1  UNL1        0.0001
     31 C          63.1035   81.9659   11.4537 C.ar    1  UNL1        0.0042
     32 C          63.2796   82.6025   12.8005 C.ar    1  UNL1        0.0492
     33 C          63.2262   81.7605   14.0407 C.2     1  UNL1        0.2424
     34 N          61.9497   81.6555   14.8216 N.am    1  UNL1       -0.3253
     35 O          64.4492   81.0234   14.5001 O.2     1  UNL1       -0.2704
     36 H          61.1470   82.1392   14.5201 H       1  UNL1        0.1453
     37 H          61.9146   81.1029   15.6356 H       1  UNL1        0.1453
@<TRIPOS>BOND
     1    21    22    1
     2    22    18    1
     3    18    19    2
     4    18    20    2
     5    18     9    1
     6     9    10    2
     7    10    11    1
     8    11    12    2
     9    12    13    1
    10    13     8    1
    11     8     1    1
    12     1     2    1
    13     1    23    1
    14    23    24    1
    15    24    25    1
    16    24    26    1
    17    24    27    1
    18    27    28   ar
    19    28    29   ar
    20    29    30   ar
    21    30    31   ar
    22    31    32   ar
    23    32    33    1
    24    33    34   am
    25    33    35    2
    26     1     4    1
    27     4     5    1
    28     4     6    1
    29     4     7    1
    30    13    14    2
    31    14    15    1
    32    15    16    1
    33    16    17    2
    34    17     9    1
    35    15    11    1
    36    32    27   ar
    37     2     3    1
    38    34    36    1
    39    34    37    1
@<TRIPOS>MOLECULE
*****
 37 39 0 0 0
SMALL
GASTEIGER

@<TRIPOS>ATOM
      1 C          62.3812   86.3949   10.6841 C.3     1  UNL1        0.1811
      2 O          63.0928   86.2563   11.9972 O.3     1  UNL1       -0.3784
      3 H          62.8769   87.0137   12.5635 H       1  UNL1        0.2106
      4 C          61.6696   86.5335    9.3709 C.3     1  UNL1        0.4197
      5 F          60.9580   86.6721    8.0577 F       1  UNL1       -0.1676
      6 F          62.9409   86.2024    8.6470 F       1  UNL1       -0.1676
      7 F          60.3982   86.8646   10.0947 F       1  UNL1       -0.1676
      8 C          61.7755   87.6862   11.1486 C.3     1  UNL1        0.0807
      9 C          65.6951   92.2601   13.4550 C.2     1  UNL1        0.1857
     10 C          65.0667   90.9378   13.7811 C.2     1  UNL1        0.0359
     11 C          64.1616   90.2720   12.7873 C.2     1  UNL1        0.0095
     12 C          63.4050   88.9774   12.8286 C.2     1  UNL1        0.0124
     13 C          62.6609   88.8340   11.5341 C.2     1  UNL1        0.0568
     14 N          62.9575   90.0399   10.6928 N.2     1  UNL1       -0.2661
     15 C          63.8850   90.9286   11.4673 C.3     1  UNL1        0.1661
     16 C          64.5135   92.2510   11.1412 C.2     1  UNL1        0.1025
     17 N          65.4185   92.9168   12.1350 N.2     1  UNL1       -0.2281
     18 S          66.6001   92.9258   14.4488 S.O2    1  UNL1        0.0250
     19 O          67.6323   93.1210   13.3781 O.2     1  UNL1       -0.1672
     20 O          65.5679   92.7306   15.5196 O.2     1  UNL1       -0.1672
     21 C          68.7160   92.8698   15.9555 C.3     1  UNL1        0.0276
     22 C          67.5052   93.5916   15.4426 C.3     1  UNL1        0.1577
     23 C          62.9868   85.1037   10.2195 C.3     1  UNL1        0.0398
     24 C          63.0047   83.9127   11.1314 C.3     1  UNL1        0.0216
     25 C          64.3035   83.4691   10.5264 C.3     1  UNL1        0.0045
     26 C          61.7058   84.3565   11.7365 C.3     1  UNL1        0.0045
     27 C          63.0227   82.7219   12.0432 C.ar    1  UNL1       -0.0184
     28 C          62.5780   81.3821   11.5359 C.ar    1  UNL1       -0.0041
     29 C          62.5959   80.1912   12.4477 C.ar    1  UNL1       -0.0003
     30 C          63.0586   80.3400   13.8669 C.ar    1  UNL1        0.0001
     31 C          63.5032   81.6798   14.3742 C.ar    1  UNL1        0.0042
     32 C          63.4852   82.8707   13.4623 C.ar    1  UNL1        0.0492
     33 C          63.9299   84.2105   13.9695 C.2     1  UNL1        0.2424
     34 N          65.3660   84.6233   13.8381 N.am    1  UNL1       -0.3253
     35 O          62.9385   85.1374   14.6082 O.2     1  UNL1       -0.2704
     36 H          66.0167   84.0150   13.4189 H       1  UNL1        0.1453
     37 H          65.6579   85.5027   14.1710 H       1  UNL1        0.1453
@<TRIPOS>BOND
     1    21    22    1
     2    22    18    1
     3    18    19    2
     4    18    20    2
     5    18     9    1
     6     9    10    2
     7    10    11    1
     8    11    12    2
     9    12    13    1
    10    13     8    1
    11     8     1    1
    12     1     2    1
    13     1    23    1
    14    23    24    1
    15    24    25    1
    16    24    26    1
    17    24    27    1
    18    27    28   ar
    19    28    29   ar
    20    29    30   ar
    21    30    31   ar
    22    31    32   ar
    23    32    33    1
    24    33    34   am
    25    33    35    2
    26     1     4    1
    27     4     5    1
    28     4     6    1
    29     4     7    1
    30    13    14    2
    31    14    15    1
    32    15    16    1
    33    16    17    2
    34    17     9    1
    35    15    11    1
    36    32    27   ar
    37     2     3    1
    38    34    36    1
    39    34    37    1
@<TRIPOS>MOLECULE
*****
 37 39 0 0 0
SMALL
GASTEIGER

@<TRIPOS>ATOM
      1 C          63.6075   87.0631   16.0106 C.3     1  UNL1        0.1811
      2 O          64.2750   87.2761   14.6844 O.3     1  UNL1       -0.3784
      3 H          64.1139   88.1840   14.3834 H       1  UNL1        0.2106
      4 C          62.9399   86.8500   17.3369 C.3     1  UNL1        0.4197
      5 F          62.2724   86.6370   18.6632 F       1  UNL1       -0.1676
      6 F          61.9098   87.8816   16.9841 F       1  UNL1       -0.1676
      7 F          63.9701   85.8184   17.6897 F       1  UNL1       -0.1676
      8 C          63.1072   88.4769   15.9859 C.3     1  UNL1        0.0807
      9 C          65.3313   92.6924   11.6400 C.2     1  UNL1        0.1857
     10 C          65.5193   92.2005   13.0445 C.2     1  UNL1        0.0359
     11 C          64.6447   91.1052   13.5790 C.2     1  UNL1        0.0095
     12 C          64.5961   90.4201   14.9126 C.2     1  UNL1        0.0124
     13 C          63.5036   89.3933   14.8665 C.2     1  UNL1        0.0568
     14 N          62.8770   89.4438   13.5046 N.2     1  UNL1       -0.2661
     15 C          63.5823   90.5018   12.7088 C.3     1  UNL1        0.1661
     16 C          63.3944   90.9937   11.3043 C.2     1  UNL1        0.1025
     17 N          64.2689   92.0890   10.7699 N.2     1  UNL1       -0.2281
     18 S          66.2058   93.7877   11.1057 S.O2    1  UNL1        0.0250
     19 O          66.6380   94.1239   12.5021 O.2     1  UNL1       -0.1672
     20 O          65.7736   93.4515    9.7091 O.2     1  UNL1       -0.1672
     21 C          67.8074   94.6961    9.2728 C.3     1  UNL1        0.0276
     22 C          67.0803   94.8830   10.5714 C.3     1  UNL1        0.1577
     23 C          64.1077   85.6492   16.0353 C.3     1  UNL1        0.0398
     24 C          63.7935   84.7224   14.8984 C.3     1  UNL1        0.0216
     25 C          65.2334   84.7486   14.4792 C.3     1  UNL1        0.0045
     26 C          62.3535   84.6964   15.3178 C.3     1  UNL1        0.0045
     27 C          63.4793   83.7957   13.7616 C.ar    1  UNL1       -0.0184
     28 C          63.7676   82.3291   13.8879 C.ar    1  UNL1       -0.0041
     29 C          63.4534   81.4024   12.7510 C.ar    1  UNL1       -0.0003
     30 C          62.8508   81.9423   11.4879 C.ar    1  UNL1        0.0001
     31 C          62.5624   83.4089   11.3616 C.ar    1  UNL1        0.0042
     32 C          62.8767   84.3356   12.4986 C.ar    1  UNL1        0.0492
     33 C          62.5883   85.8022   12.3723 C.2     1  UNL1        0.2424
     34 N          61.2134   86.2662   11.9921 N.am    1  UNL1       -0.3253
     35 O          63.6747   86.8047   12.6263 O.2     1  UNL1       -0.2704
     36 H          60.5004   85.6082   11.8254 H       1  UNL1        0.1453
     37 H          61.0241   87.2288   11.9092 H       1  UNL1        0.1453
@<TRIPOS>BOND
     1    21    22    1
     2    22    18    1
     3    18    19    2
     4    18    20    2
     5    18     9    1
     6     9    10    2
     7    10    11    1
     8    11    12    2
     9    12    13    1
    10    13     8    1
    11     8     1    1
    12     1     2    1
    13     1    23    1
    14    23    24    1
    15    24    25    1
    16    24    26    1
    17    24    27    1
    18    27    28   ar
    19    28    29   ar
    20    29    30   ar
    21    30    31   ar
    22    31    32   ar
    23    32    33    1
    24    33    34   am
    25    33    35    2
    26     1     4    1
    27     4     5    1
    28     4     6    1
    29     4     7    1
    30    13    14    2
    31    14    15    1
    32    15    16    1
    33    16    17    2
    34    17     9    1
    35    15    11    1
    36    32    27   ar
    37     2     3    1
    38    34    36    1
    39    34    37    1
@<TRIPOS>MOLECULE
*****
 37 39 0 0 0
SMALL
GASTEIGER

@<TRIPOS>ATOM
      1 C          65.7034   92.0879   13.6801 C.3     1  UNL1        0.1811
      2 O          64.6469   92.1729   12.6187 O.3     1  UNL1       -0.3784
      3 H          63.7752   92.0245   13.0175 H       1  UNL1        0.2106
      4 C          66.7599   92.0028   14.7415 C.3     1  UNL1        0.4197
      5 F          67.8164   91.9178   15.8028 F       1  UNL1       -0.1676
      6 F          67.6035   91.1573   13.8340 F       1  UNL1       -0.1676
      7 F          65.9164   92.8483   15.6490 F       1  UNL1       -0.1676
      8 C          64.6472   91.8143   14.7094 C.3     1  UNL1        0.0807
      9 C          63.4100   85.5385   15.5382 C.2     1  UNL1        0.1857
     10 C          64.0477   86.5262   14.6066 C.2     1  UNL1        0.0359
     11 C          64.0422   87.9877   14.9446 C.2     1  UNL1        0.0095
     12 C          64.5881   89.1860   14.2263 C.2     1  UNL1        0.0124
     13 C          64.2822   90.4004   15.0521 C.2     1  UNL1        0.0568
     14 N          63.5473   89.9525   16.2806 N.2     1  UNL1       -0.2661
     15 C          63.3989   88.4614   16.2142 C.3     1  UNL1        0.1661
     16 C          62.7612   87.4736   17.1458 C.2     1  UNL1        0.1025
     17 N          62.7668   86.0123   16.8077 N.2     1  UNL1       -0.2281
     18 S          63.4156   84.0772   15.2001 S.O2    1  UNL1        0.0250
     19 O          62.0173   83.9498   15.7278 O.2     1  UNL1       -0.1672
     20 O          64.8140   84.2045   14.6724 O.2     1  UNL1       -0.1672
     21 C          62.1572   81.9454   14.4113 C.3     1  UNL1        0.0276
     22 C          63.4211   82.6157   14.8621 C.3     1  UNL1        0.1577
     23 C          66.7596   92.3614   12.6507 C.3     1  UNL1        0.0398
     24 C          66.5560   93.4490   11.6379 C.3     1  UNL1        0.0216
     25 C          66.3081   92.4162   10.5787 C.3     1  UNL1        0.0045
     26 C          66.8039   94.4818   12.6971 C.3     1  UNL1        0.0045
     27 C          66.3524   94.5365   10.6251 C.ar    1  UNL1       -0.0184
     28 C          65.2992   95.5811   10.8477 C.ar    1  UNL1       -0.0041
     29 C          65.0956   96.6687    9.8349 C.ar    1  UNL1       -0.0003
     30 C          65.9453   96.7116    8.5994 C.ar    1  UNL1        0.0001
     31 C          66.9985   95.6670    8.3768 C.ar    1  UNL1        0.0042
     32 C          67.2020   94.5794    9.3897 C.ar    1  UNL1        0.0492
     33 C          68.2552   93.5348    9.1671 C.2     1  UNL1        0.2424
     34 N          69.2530   93.2340   10.2460 N.am    1  UNL1       -0.3253
     35 O          68.3107   92.7911    7.8657 O.2     1  UNL1       -0.2704
     36 H          69.2166   93.7221   11.1002 H       1  UNL1        0.1453
     37 H          69.9443   92.5484   10.1000 H       1  UNL1        0.1453
@<TRIPOS>BOND
     1    21    22    1
     2    22    18    1
     3    18    19    2
     4    18    20    2
     5    18     9    1
     6     9    10    2
     7    10    11    1
     8    11    12    2
     9    12    13    1
    10    13     8    1
    11     8     1    1
    12     1     2    1
    13     1    23    1
    14    23    24    1
    15    24    25    1
    16    24    26    1
    17    24    27    1
    18    27    28   ar
    19    28    29   ar
    20    29    30   ar
    21    30    31   ar
    22    31    32   ar
    23    32    33    1
    24    33    34   am
    25    33    35    2
    26     1     4    1
    27     4     5    1
    28     4     6    1
    29     4     7    1
    30    13    14    2
    31    14    15    1
    32    15    16    1
    33    16    17    2
    34    17     9    1
    35    15    11    1
    36    32    27   ar
    37     2     3    1
    38    34    36    1
    39    34    37    1
@<TRIPOS>MOLECULE
*****
 37 39 0 0 0
SMALL
GASTEIGER

@<TRIPOS>ATOM
      1 C          61.3312   88.1837    9.2277 C.3     1  UNL1        0.1811
      2 O          62.5825   88.0170   10.0378 O.3     1  UNL1       -0.3784
      3 H          62.7340   88.8158   10.5668 H       1  UNL1        0.2106
      4 C          60.0798   88.3503    8.4175 C.3     1  UNL1        0.4197
      5 F          58.8285   88.5169    7.6073 F       1  UNL1       -0.1676
      6 F          60.4796   87.1859    7.5606 F       1  UNL1       -0.1676
      7 F          59.6801   89.5147    9.2744 F       1  UNL1       -0.1676
      8 C          61.1373   89.5528    9.8089 C.3     1  UNL1        0.0807
      9 C          65.3953   92.0358   13.9691 C.2     1  UNL1        0.1857
     10 C          64.9958   92.0181   12.5234 C.2     1  UNL1        0.0359
     11 C          63.8248   91.1926   12.0789 C.2     1  UNL1        0.0095
     12 C          63.2010   90.9792   10.7316 C.2     1  UNL1        0.0124
     13 C          62.0439   90.0396   10.9002 C.2     1  UNL1        0.0568
     14 N          61.9527   89.6723   12.3516 N.2     1  UNL1       -0.2661
     15 C          63.0534   90.3849   13.0802 C.3     1  UNL1        0.1661
     16 C          63.4529   90.4027   14.5259 C.2     1  UNL1        0.1025
     17 N          64.6238   91.2281   14.9704 N.2     1  UNL1       -0.2281
     18 S          66.5662   92.8613   14.4136 S.O2    1  UNL1        0.0250
     19 O          66.7982   93.2951   12.9966 O.2     1  UNL1       -0.1672
     20 O          66.3342   92.4274   15.8307 O.2     1  UNL1       -0.1672
     21 C          68.6314   93.1904   15.9551 C.3     1  UNL1        0.0276
     22 C          67.7371   93.6868   14.8580 C.3     1  UNL1        0.1577
     23 C          61.5252   86.8146    8.6464 C.3     1  UNL1        0.0398
     24 C          62.2377   85.7579    9.4376 C.3     1  UNL1        0.0216
     25 C          63.4204   85.8699    8.5219 C.3     1  UNL1        0.0045
     26 C          61.0549   85.6459   10.3533 C.3     1  UNL1        0.0045
     27 C          62.9502   84.7013   10.2286 C.ar    1  UNL1       -0.0184
     28 C          63.4464   83.4607    9.5468 C.ar    1  UNL1       -0.0041
     29 C          64.1589   82.4041   10.3379 C.ar    1  UNL1       -0.0003
     30 C          64.3753   82.5880   11.8108 C.ar    1  UNL1        0.0001
     31 C          63.8791   83.8286   12.4926 C.ar    1  UNL1        0.0042
     32 C          63.1665   84.8852   11.7015 C.ar    1  UNL1        0.0492
     33 C          62.6704   86.1258   12.3832 C.2     1  UNL1        0.2424
     34 N          63.6392   87.0441   13.0674 N.am    1  UNL1       -0.3253
     35 O          61.2054   86.4480   12.3809 O.2     1  UNL1       -0.2704
     36 H          64.6007   86.8327   13.0690 H       1  UNL1        0.1453
     37 H          63.3136   87.8584   13.5149 H       1  UNL1        0.1453
@<TRIPOS>BOND
     1    21    22    1
     2    22    18    1
     3    18    19    2
     4    18    20    2
     5    18     9    1
     6     9    10    2
     7    10    11    1
     8    11    12    2
     9    12    13    1
    10    13     8    1
    11     8     1    1
    12     1     2    1
    13     1    23    1
    14    23    24    1
    15    24    25    1
    16    24    26    1
    17    24    27    1
    18    27    28   ar
    19    28    29   ar
    20    29    30   ar
    21    30    31   ar
    22    31    32   ar
    23    32    33    1
    24    33    34   am
    25    33    35    2
    26     1     4    1
    27     4     5    1
    28     4     6    1
    29     4     7    1
    30    13    14    2
    31    14    15    1
    32    15    16    1
    33    16    17    2
    34    17     9    1
    35    15    11    1
    36    32    27   ar
    37     2     3    1
    38    34    36    1
    39    34    37    1
@<TRIPOS>MOLECULE
*****
 37 39 0 0 0
SMALL
GASTEIGER

@<TRIPOS>ATOM
      1 C          64.7685   91.1488   14.0234 C.3     1  UNL1        0.1811
      2 O          64.9813   90.8152   12.5766 O.3     1  UNL1       -0.3784
      3 H          64.4327   90.0520   12.3367 H       1  UNL1        0.2106
      4 C          64.5557   91.4824   15.4703 C.3     1  UNL1        0.4197
      5 F          64.3429   91.8161   16.9171 F       1  UNL1       -0.1676
      6 F          63.5851   90.3452   15.5898 F       1  UNL1       -0.1676
      7 F          65.5264   92.6197   15.3508 F       1  UNL1       -0.1676
      8 C          63.7936   90.0150   14.1415 C.3     1  UNL1        0.0807
      9 C          61.1609   87.1527    8.9956 C.2     1  UNL1        0.1857
     10 C          62.1274   86.9461   10.1239 C.2     1  UNL1        0.0359
     11 C          62.3745   88.0482   11.1111 C.2     1  UNL1        0.0095
     12 C          63.2632   88.1354   12.3165 C.2     1  UNL1        0.0124
     13 C          63.0929   89.4980   12.9200 C.2     1  UNL1        0.0568
     14 N          62.0992   90.2529   12.0879 N.2     1  UNL1       -0.2661
     15 C          61.6551   89.3568   10.9699 C.3     1  UNL1        0.1661
     16 C          60.6887   89.5634    9.8414 C.2     1  UNL1        0.1025
     17 N          60.4416   88.4614    8.8543 N.2     1  UNL1       -0.2281
     18 S          60.9139   86.0507    8.0085 S.O2    1  UNL1        0.0250
     19 O          59.4870   86.4928    7.8721 O.2     1  UNL1       -0.1672
     20 O          62.3408   85.6086    8.1448 O.2     1  UNL1       -0.1672
     21 C          61.7535   84.5315    6.0753 C.3     1  UNL1        0.0276
     22 C          60.6667   84.9487    7.0213 C.3     1  UNL1        0.1577
     23 C          65.7434   92.2826   13.9053 C.3     1  UNL1        0.0398
     24 C          66.3768   92.5923   12.5813 C.3     1  UNL1        0.0216
     25 C          65.0172   92.7486   11.9675 C.3     1  UNL1        0.0045
     26 C          67.7365   92.4361   13.1953 C.3     1  UNL1        0.0045
     27 C          67.0102   92.9020   11.2574 C.ar    1  UNL1       -0.0184
     28 C          67.7703   91.8381   10.5224 C.ar    1  UNL1       -0.0041
     29 C          68.4037   92.1478    9.1984 C.ar    1  UNL1       -0.0003
     30 C          68.2769   93.5216    8.6094 C.ar    1  UNL1        0.0001
     31 C          67.5167   94.5855    9.3444 C.ar    1  UNL1        0.0042
     32 C          66.8834   94.2757   10.6684 C.ar    1  UNL1        0.0492
     33 C          66.1232   95.3397   11.4035 C.2     1  UNL1        0.2424
     34 N          65.0597   96.1260   10.6959 N.am    1  UNL1       -0.3253
     35 O          66.4266   95.6173   12.8459 O.2     1  UNL1       -0.2704
     36 H          64.8605   95.9438    9.7491 H       1  UNL1        0.1453
     37 H          64.5608   96.8243   11.1783 H       1  UNL1        0.1453
@<TRIPOS>BOND
     1    21    22    1
     2    22    18    1
     3    18    19    2
     4    18    20    2
     5    18     9    1
     6     9    10    2
     7    10    11    1
     8    11    12    2
     9    12    13    1
    10    13     8    1
    11     8     1    1
    12     1     2    1
    13     1    23    1
    14    23    24    1
    15    24    25    1
    16    24    26    1
    17    24    27    1
    18    27    28   ar
    19    28    29   ar
    20    29    30   ar
    21    30    31   ar
    22    31    32   ar
    23    32    33    1
    24    33    34   am
    25    33    35    2
    26     1     4    1
    27     4     5    1
    28     4     6    1
    29     4     7    1
    30    13    14    2
    31    14    15    1
    32    15    16    1
    33    16    17    2
    34    17     9    1
    35    15    11    1
    36    32    27   ar
    37     2     3    1
    38    34    36    1
    39    34    37    1
@<TRIPOS>MOLECULE
*****
 37 39 0 0 0
SMALL
GASTEIGER

@<TRIPOS>ATOM
      1 C          64.5318   91.6087   12.6731 C.3     1  UNL1        0.1811
      2 O          64.1652   91.9596   11.2616 O.3     1  UNL1       -0.3784
      3 H          63.2583   91.6668   11.0808 H       1  UNL1        0.2106
      4 C          64.8985   91.2578   14.0847 C.3     1  UNL1        0.4197
      5 F          65.2651   90.9069   15.4962 F       1  UNL1       -0.1676
      6 F          63.4530   91.3316   14.4785 F       1  UNL1       -0.1676
      7 F          66.3440   91.1839   13.6909 F       1  UNL1       -0.1676
      8 C          63.1739   91.0044   12.8755 C.3     1  UNL1        0.0807
      9 C          61.0593   86.8910    8.3799 C.2     1  UNL1        0.1857
     10 C          62.1100   87.0870    9.4322 C.2     1  UNL1        0.0359
     11 C          62.1266   88.3441   10.2506 C.2     1  UNL1        0.0095
     12 C          63.0323   88.8141   11.3501 C.2     1  UNL1        0.0124
     13 C          62.5577   90.1655   11.7955 C.2     1  UNL1        0.0568
     14 N          61.3589   90.5308   10.9714 N.2     1  UNL1       -0.2661
     15 C          61.0924   89.4051   10.0165 C.3     1  UNL1        0.1661
     16 C          60.0416   89.2090    8.9641 C.2     1  UNL1        0.1025
     17 N          60.0251   87.9520    8.1458 N.2     1  UNL1       -0.2281
     18 S          61.0427   85.6340    7.5616 S.O2    1  UNL1        0.0250
     19 O          62.4705   85.3702    7.9379 O.2     1  UNL1       -0.1672
     20 O          59.6148   85.8978    7.1852 O.2     1  UNL1       -0.1672
     21 C          61.8777   84.2718    5.5129 C.3     1  UNL1        0.0276
     22 C          61.0262   84.3770    6.7433 C.3     1  UNL1        0.1577
     23 C          65.8897   92.2129   12.4706 C.3     1  UNL1        0.0398
     24 C          66.0792   93.3134   11.4690 C.3     1  UNL1        0.0216
     25 C          65.8013   92.3477   10.3555 C.3     1  UNL1        0.0045
     26 C          66.3570   94.2792   12.5827 C.3     1  UNL1        0.0045
     27 C          66.2687   94.4138   10.4675 C.ar    1  UNL1       -0.0184
     28 C          65.3542   95.6028   10.4775 C.ar    1  UNL1       -0.0041
     29 C          65.5437   96.7031    9.4759 C.ar    1  UNL1       -0.0003
     30 C          66.6476   96.6146    8.4642 C.ar    1  UNL1        0.0001
     31 C          67.5621   95.4256    8.4542 C.ar    1  UNL1        0.0042
     32 C          67.3726   94.3252    9.4558 C.ar    1  UNL1        0.0492
     33 C          68.2870   93.1362    9.4458 C.2     1  UNL1        0.2424
     34 N          68.9912   92.7209   10.7035 N.am    1  UNL1       -0.3253
     35 O          68.4973   92.3624    8.1781 O.2     1  UNL1       -0.2704
     36 H          68.8532   93.2288   11.5355 H       1  UNL1        0.1453
     37 H          69.5914   91.9406   10.6969 H       1  UNL1        0.1453
@<TRIPOS>BOND
     1    21    22    1
     2    22    18    1
     3    18    19    2
     4    18    20    2
     5    18     9    1
     6     9    10    2
     7    10    11    1
     8    11    12    2
     9    12    13    1
    10    13     8    1
    11     8     1    1
    12     1     2    1
    13     1    23    1
    14    23    24    1
    15    24    25    1
    16    24    26    1
    17    24    27    1
    18    27    28   ar
    19    28    29   ar
    20    29    30   ar
    21    30    31   ar
    22    31    32   ar
    23    32    33    1
    24    33    34   am
    25    33    35    2
    26     1     4    1
    27     4     5    1
    28     4     6    1
    29     4     7    1
    30    13    14    2
    31    14    15    1
    32    15    16    1
    33    16    17    2
    34    17     9    1
    35    15    11    1
    36    32    27   ar
    37     2     3    1
    38    34    36    1
    39    34    37    1
@<TRIPOS>MOLECULE
*****
 37 39 0 0 0
SMALL
GASTEIGER

@<TRIPOS>ATOM
      1 C          64.7635   91.5809   12.6208 C.3     1  UNL1        0.1811
      2 O          64.3937   91.7307   11.1749 O.3     1  UNL1       -0.3784
      3 H          63.5019   91.3773   11.0310 H       1  UNL1        0.2106
      4 C          65.1334   91.4311   14.0668 C.3     1  UNL1        0.4197
      5 F          65.5034   91.2814   15.5126 F       1  UNL1       -0.1676
      6 F          66.5694   91.2367   13.6792 F       1  UNL1       -0.1676
      7 F          63.6975   91.6256   14.4543 F       1  UNL1       -0.1676
      8 C          63.4316   90.9483   12.8959 C.3     1  UNL1        0.0807
      9 C          62.7423   84.6312   11.7904 C.2     1  UNL1        0.1857
     10 C          63.3420   85.6285   12.7369 C.2     1  UNL1        0.0359
     11 C          63.1770   87.0975   12.4823 C.2     1  UNL1        0.0095
     12 C          63.6520   88.3059   13.2334 C.2     1  UNL1        0.0124
     13 C          63.1807   89.5244   12.4965 C.2     1  UNL1        0.0568
     14 N          62.4145   89.0692   11.2900 N.2     1  UNL1       -0.2661
     15 C          62.4121   87.5692   11.2812 C.3     1  UNL1        0.1661
     16 C          61.8124   86.5719   10.3347 C.2     1  UNL1        0.1025
     17 N          61.9775   85.1030   10.5893 N.2     1  UNL1       -0.2281
     18 S          62.9075   83.1623   12.0450 S.O2    1  UNL1        0.0250
     19 O          62.3705   83.3426   13.4339 O.2     1  UNL1       -0.1672
     20 O          63.4444   82.9818   10.6560 O.2     1  UNL1       -0.1672
     21 C          62.1947   81.0023   13.3005 C.3     1  UNL1        0.0276
     22 C          63.0726   81.6932   12.2996 C.3     1  UNL1        0.1577
     23 C          66.0954   92.2135   12.3456 C.3     1  UNL1        0.0398
     24 C          66.2038   93.3313   11.3512 C.3     1  UNL1        0.0216
     25 C          65.9946   92.3555   10.2315 C.3     1  UNL1        0.0045
     26 C          66.4129   94.3072   12.4710 C.3     1  UNL1        0.0045
     27 C          66.3121   94.4491   10.3568 C.ar    1  UNL1       -0.0184
     28 C          65.3437   95.5935   10.4064 C.ar    1  UNL1       -0.0041
     29 C          65.4520   96.7113    9.4121 C.ar    1  UNL1       -0.0003
     30 C          66.5287   96.6847    8.3680 C.ar    1  UNL1        0.0001
     31 C          67.4971   95.5403    8.3184 C.ar    1  UNL1        0.0042
     32 C          67.3888   94.4224    9.3129 C.ar    1  UNL1        0.0492
     33 C          68.3572   93.2780    9.2632 C.2     1  UNL1        0.2424
     34 N          69.1710   92.9312   10.4747 N.am    1  UNL1       -0.3253
     35 O          68.5118   92.4805    8.0023 O.2     1  UNL1       -0.2704
     36 H          69.0696   93.4546   11.3022 H       1  UNL1        0.1453
     37 H          69.8066   92.1800   10.4421 H       1  UNL1        0.1453
@<TRIPOS>BOND
     1    21    22    1
     2    22    18    1
     3    18    19    2
     4    18    20    2
     5    18     9    1
     6     9    10    2
     7    10    11    1
     8    11    12    2
     9    12    13    1
    10    13     8    1
    11     8     1    1
    12     1     2    1
    13     1    23    1
    14    23    24    1
    15    24    25    1
    16    24    26    1
    17    24    27    1
    18    27    28   ar
    19    28    29   ar
    20    29    30   ar
    21    30    31   ar
    22    31    32   ar
    23    32    33    1
    24    33    34   am
    25    33    35    2
    26     1     4    1
    27     4     5    1
    28     4     6    1
    29     4     7    1
    30    13    14    2
    31    14    15    1
    32    15    16    1
    33    16    17    2
    34    17     9    1
    35    15    11    1
    36    32    27   ar
    37     2     3    1
    38    34    36    1
    39    34    37    1
