@<TRIPOS>MOLECULE
*****
 36 40 0 0 0
SMALL
GASTEIGER

@<TRIPOS>ATOM
      1 N          62.8673   88.1475   11.5154 N.ar    1  UNL1       -0.2757
      2 C          62.6642   87.0256   12.4902 C.ar    1  UNL1        0.3342
      3 O          62.0089   85.7527   12.0428 O.2     1  UNL1       -0.2462
      4 N          63.1166   87.1766   13.9124 N.ar    1  UNL1       -0.2467
      5 C          62.9135   86.0547   14.8870 C.3     1  UNL1        0.1382
      6 C          63.7719   88.4495   14.3598 C.ar    1  UNL1        0.2663
      7 O          64.2243   88.6005   15.7820 O.2     1  UNL1       -0.2668
      8 C          63.9750   89.5714   13.3851 C.ar    1  UNL1        0.0829
      9 C          64.5861   90.9330   13.5351 C.ar    1  UNL1        0.0624
     10 C          64.5114   91.6236   12.2056 C.ar    1  UNL1        0.0176
     11 S          63.8542   90.6887   11.2339 S.2     1  UNL1       -0.0734
     12 C          63.5226   89.4204   11.9629 C.ar    1  UNL1        0.0982
     13 C          65.1694   91.5038   14.7936 C.2     1  UNL1        0.2495
     14 O          64.2855   91.7725   15.9753 O.2     1  UNL1       -0.2699
     15 N          66.6366   91.8061   14.8703 N.am    1  UNL1       -0.2735
     16 C          67.3587   92.3758   16.0552 C.3     1  UNL1        0.0964
     17 C          68.8077   92.5135   15.6928 C.3     1  UNL1        0.0525
     18 C          68.9812   92.0288   14.2839 C.3     1  UNL1        0.1320
     19 O          70.2703   91.9884   13.5178 O.3     1  UNL1       -0.3827
     20 C          67.6394   91.5916   13.7756 C.3     1  UNL1        0.1228
     21 H          70.1079   91.6324   12.6303 H       1  UNL1        0.2104
     22 C          62.4149   87.9965   10.0933 C.3     1  UNL1        0.1109
     23 C          60.4687   89.7050    9.8850 C.3     1  UNL1        0.0020
     24 C          60.9965   88.3106    9.7201 C.3     1  UNL1        0.0228
     25 C          60.1058   87.2304    9.1819 C.3     1  UNL1        0.0020
     26 C          65.0070   93.0062   11.9011 C.3     1  UNL1        0.0594
     27 C          66.1567   93.2000   10.9574 C.ar    1  UNL1       -0.0158
     28 C          67.2509   92.1764   10.8882 C.ar    1  UNL1       -0.0038
     29 C          68.4006   92.3702    9.9444 C.ar    1  UNL1        0.0012
     30 C          68.4560   93.5876    9.0699 C.ar    1  UNL1        0.0191
     31 C          67.3617   94.6113    9.1391 C.ar    1  UNL1        0.0810
     32 N          67.4172   95.8287    8.2646 N.ar    1  UNL1       -0.2438
     33 C          66.3229   96.8522    8.3338 C.ar    1  UNL1        0.0988
     34 C          65.1732   96.6584    9.2775 C.ar    1  UNL1        0.0207
     35 C          65.1178   95.4411   10.1521 C.ar    1  UNL1        0.0028
     36 C          66.2121   94.4175   10.0828 C.ar    1  UNL1        0.0141
@<TRIPOS>BOND
     1    23    24    1
     2    24    25    1
     3    24    22    1
     4    22     1    1
     5     1     2   ar
     6     2     3    2
     7     2     4   ar
     8     4     5    1
     9     4     6   ar
    10     6     7    2
    11     6     8   ar
    12     8     9   ar
    13     9    13    1
    14    13    14    2
    15    13    15   am
    16    15    16    1
    17    16    17    1
    18    17    18    1
    19    18    19    1
    20    18    20    1
    21     9    10   ar
    22    10    26    1
    23    26    27    1
    24    27    28   ar
    25    28    29   ar
    26    29    30   ar
    27    30    31   ar
    28    31    32   ar
    29    32    33   ar
    30    33    34   ar
    31    34    35   ar
    32    35    36   ar
    33    10    11   ar
    34    11    12   ar
    35    12     1   ar
    36    12     8   ar
    37    20    15    1
    38    36    27   ar
    39    36    31   ar
    40    19    21    1
@<TRIPOS>MOLECULE
*****
 36 40 0 0 0
SMALL
GASTEIGER

@<TRIPOS>ATOM
      1 N          61.1944   88.0984   10.1441 N.ar    1  UNL1       -0.2757
      2 C          60.6803   87.6208    8.8183 C.ar    1  UNL1        0.3342
      3 O          59.8248   88.5211    7.9771 O.2     1  UNL1       -0.2462
      4 N          61.0216   86.2429    8.3337 N.ar    1  UNL1       -0.2467
      5 C          60.5075   85.7654    7.0080 C.3     1  UNL1        0.1382
      6 C          61.8771   85.3426    9.1749 C.ar    1  UNL1        0.2663
      7 O          62.2184   83.9647    8.6904 O.2     1  UNL1       -0.2668
      8 C          62.3912   85.8201   10.5007 C.ar    1  UNL1        0.0829
      9 C          63.2486   85.1622   11.5408 C.ar    1  UNL1        0.0624
     10 C          63.4372   86.1335   12.6682 C.ar    1  UNL1        0.0176
     11 S          62.6963   87.3917   12.3249 S.2     1  UNL1       -0.0734
     12 C          62.0498   87.1980   10.9853 C.ar    1  UNL1        0.0982
     13 C          63.8176   83.7763   11.4665 C.2     1  UNL1        0.2495
     14 O          65.0080   83.4999   10.5968 O.2     1  UNL1       -0.2699
     15 N          63.1962   82.6667   12.2620 N.am    1  UNL1       -0.2735
     16 C          63.6526   81.2382   12.2886 C.3     1  UNL1        0.0964
     17 C          62.7477   80.4796   13.2135 C.3     1  UNL1        0.0525
     18 C          61.7319   81.4393   13.7586 C.3     1  UNL1        0.1320
     19 O          60.6320   81.1058   14.7225 O.3     1  UNL1       -0.3827
     20 C          62.0091   82.7911   13.1704 C.3     1  UNL1        0.1228
     21 H          60.1166   81.9049   14.9140 H       1  UNL1        0.2104
     22 C          60.8530   89.4763   10.6287 C.3     1  UNL1        0.1109
     23 C          59.0091   91.0497   11.5640 C.3     1  UNL1        0.0020
     24 C          59.6404   89.6912   11.4851 C.3     1  UNL1        0.0228
     25 C          59.0590   88.5477   12.2624 C.3     1  UNL1        0.0020
     26 C          64.2279   85.8894   13.9193 C.3     1  UNL1        0.0594
     27 C          63.7379   86.4237   15.2324 C.ar    1  UNL1       -0.0158
     28 C          63.2161   85.4825   16.2773 C.ar    1  UNL1       -0.0038
     29 C          62.7260   86.0168   17.5905 C.ar    1  UNL1        0.0012
     30 C          62.7578   87.4922   17.8588 C.ar    1  UNL1        0.0191
     31 C          63.2796   88.4335   16.8138 C.ar    1  UNL1        0.0810
     32 N          63.3114   89.9089   17.0821 N.ar    1  UNL1       -0.2438
     33 C          63.8332   90.8501   16.0372 C.ar    1  UNL1        0.0988
     34 C          64.3233   90.3158   14.7240 C.ar    1  UNL1        0.0207
     35 C          64.2915   88.8404   14.4558 C.ar    1  UNL1        0.0028
     36 C          63.7697   87.8992   15.5007 C.ar    1  UNL1        0.0141
@<TRIPOS>BOND
     1    23    24    1
     2    24    25    1
     3    24    22    1
     4    22     1    1
     5     1     2   ar
     6     2     3    2
     7     2     4   ar
     8     4     5    1
     9     4     6   ar
    10     6     7    2
    11     6     8   ar
    12     8     9   ar
    13     9    13    1
    14    13    14    2
    15    13    15   am
    16    15    16    1
    17    16    17    1
    18    17    18    1
    19    18    19    1
    20    18    20    1
    21     9    10   ar
    22    10    26    1
    23    26    27    1
    24    27    28   ar
    25    28    29   ar
    26    29    30   ar
    27    30    31   ar
    28    31    32   ar
    29    32    33   ar
    30    33    34   ar
    31    34    35   ar
    32    35    36   ar
    33    10    11   ar
    34    11    12   ar
    35    12     1   ar
    36    12     8   ar
    37    20    15    1
    38    36    27   ar
    39    36    31   ar
    40    19    21    1
@<TRIPOS>MOLECULE
*****
 36 40 0 0 0
SMALL
GASTEIGER

@<TRIPOS>ATOM
      1 N          63.0011   89.2151   11.1481 N.ar    1  UNL1       -0.2757
      2 C          62.8180   87.9379   11.9131 C.ar    1  UNL1        0.3342
      3 O          62.1063   86.7795   11.2793 O.2     1  UNL1       -0.2462
      4 N          63.3467   87.8190   13.3118 N.ar    1  UNL1       -0.2467
      5 C          63.1636   86.5418   14.0767 C.3     1  UNL1        0.1382
      6 C          64.0584   88.9774   13.9455 C.ar    1  UNL1        0.2663
      7 O          64.5870   88.8586   15.3442 O.2     1  UNL1       -0.2668
      8 C          64.2415   90.2546   13.1806 C.ar    1  UNL1        0.0829
      9 C          64.8961   91.5552   13.5407 C.ar    1  UNL1        0.0624
     10 C          64.7721   92.4780   12.3646 C.ar    1  UNL1        0.0176
     11 S          64.0408   91.7476   11.2775 S.2     1  UNL1       -0.0734
     12 C          63.7128   90.3735   11.7818 C.ar    1  UNL1        0.0982
     13 C          65.5585   91.8767   14.8476 C.2     1  UNL1        0.2495
     14 O          64.7312   92.0360   16.0886 O.2     1  UNL1       -0.2699
     15 N          67.0483   92.0389   14.9134 N.am    1  UNL1       -0.2735
     16 C          67.8469   92.3588   16.1421 C.3     1  UNL1        0.0964
     17 C          69.2931   92.4273   15.7502 C.3     1  UNL1        0.0525
     18 C          69.3884   92.1498   14.2791 C.3     1  UNL1        0.1320
     19 O          70.6496   92.1179   13.4677 O.3     1  UNL1       -0.3827
     20 C          68.0009   91.9097   13.7620 C.3     1  UNL1        0.1228
     21 H          70.4345   91.9159   12.5436 H       1  UNL1        0.2104
     22 C          62.4724   89.3340    9.7494 C.3     1  UNL1        0.1109
     23 C          60.3524   88.7748    8.3555 C.3     1  UNL1        0.0020
     24 C          60.9977   89.4752    9.5144 C.3     1  UNL1        0.0228
     25 C          60.1683   90.3169   10.4383 C.3     1  UNL1        0.0020
     26 C          65.2887   93.8841   12.2888 C.3     1  UNL1        0.0594
     27 C          65.7767   94.4344   10.9815 C.ar    1  UNL1       -0.0158
     28 C          65.2301   95.7314   10.4629 C.ar    1  UNL1       -0.0038
     29 C          65.7181   96.2817    9.1556 C.ar    1  UNL1        0.0012
     30 C          66.7527   95.5351    8.3670 C.ar    1  UNL1        0.0191
     31 C          67.2994   94.2380    8.8856 C.ar    1  UNL1        0.0810
     32 N          68.3340   93.4914    8.0970 N.ar    1  UNL1       -0.2438
     33 C          68.8806   92.1944    8.6156 C.ar    1  UNL1        0.0988
     34 C          68.3926   91.6441    9.9229 C.ar    1  UNL1        0.0207
     35 C          67.3580   92.3907   10.7115 C.ar    1  UNL1        0.0028
     36 C          66.8114   93.6877   10.1929 C.ar    1  UNL1        0.0141
@<TRIPOS>BOND
     1    23    24    1
     2    24    25    1
     3    24    22    1
     4    22     1    1
     5     1     2   ar
     6     2     3    2
     7     2     4   ar
     8     4     5    1
     9     4     6   ar
    10     6     7    2
    11     6     8   ar
    12     8     9   ar
    13     9    13    1
    14    13    14    2
    15    13    15   am
    16    15    16    1
    17    16    17    1
    18    17    18    1
    19    18    19    1
    20    18    20    1
    21     9    10   ar
    22    10    26    1
    23    26    27    1
    24    27    28   ar
    25    28    29   ar
    26    29    30   ar
    27    30    31   ar
    28    31    32   ar
    29    32    33   ar
    30    33    34   ar
    31    34    35   ar
    32    35    36   ar
    33    10    11   ar
    34    11    12   ar
    35    12     1   ar
    36    12     8   ar
    37    20    15    1
    38    36    27   ar
    39    36    31   ar
    40    19    21    1
@<TRIPOS>MOLECULE
*****
 36 40 0 0 0
SMALL
GASTEIGER

@<TRIPOS>ATOM
      1 N          63.7297   85.2586   13.1498 N.ar    1  UNL1       -0.2757
      2 C          63.6293   84.1734   12.1190 C.ar    1  UNL1        0.3342
      3 O          63.9622   82.7575   12.4857 O.2     1  UNL1       -0.2462
      4 N          63.1961   84.5042   10.7215 N.ar    1  UNL1       -0.2467
      5 C          63.0957   83.4190    9.6909 C.3     1  UNL1        0.1382
      6 C          62.8632   85.9200   10.3548 C.ar    1  UNL1        0.2663
      7 O          62.4300   86.2508    8.9574 O.2     1  UNL1       -0.2668
      8 C          62.9636   87.0052   11.3855 C.ar    1  UNL1        0.0829
      9 C          62.7020   88.4806   11.3183 C.ar    1  UNL1        0.0624
     10 C          62.9736   89.0618   12.6742 C.ar    1  UNL1        0.0176
     11 S          63.4030   87.9455   13.5794 S.2     1  UNL1       -0.0734
     12 C          63.3968   86.6744   12.7830 C.ar    1  UNL1        0.0982
     13 C          62.2485   89.2414   10.1077 C.2     1  UNL1        0.2495
     14 O          62.9966   90.4644    9.6667 O.2     1  UNL1       -0.2699
     15 N          61.0469   88.7791    9.3380 N.am    1  UNL1       -0.2735
     16 C          60.4781   89.4339    8.1143 C.3     1  UNL1        0.0964
     17 C          59.2828   88.6403    7.6770 C.3     1  UNL1        0.0525
     18 C          59.1127   87.4949    8.6305 C.3     1  UNL1        0.1320
     19 O          58.0406   86.4476    8.5684 O.3     1  UNL1       -0.3827
     20 C          60.2030   87.5807    9.6571 C.3     1  UNL1        0.1228
     21 H          58.1562   85.8226    9.3011 H       1  UNL1        0.2104
     22 C          64.1629   84.9278   14.5472 C.3     1  UNL1        0.1109
     23 C          63.1535   85.8213   16.7682 C.3     1  UNL1        0.0020
     24 C          63.1448   84.8279   15.6442 C.3     1  UNL1        0.0228
     25 C          62.1181   83.7348   15.6173 C.3     1  UNL1        0.0020
     26 C          62.8394   90.5057   13.0576 C.3     1  UNL1        0.0594
     27 C          64.0029   91.2317   13.6651 C.ar    1  UNL1       -0.0158
     28 C          64.2458   91.1551   15.1433 C.ar    1  UNL1       -0.0038
     29 C          65.4094   91.8811   15.7508 C.ar    1  UNL1        0.0012
     30 C          66.3300   92.6837   14.8801 C.ar    1  UNL1        0.0191
     31 C          66.0872   92.7604   13.4018 C.ar    1  UNL1        0.0810
     32 N          67.0078   93.5631   12.5312 N.ar    1  UNL1       -0.2438
     33 C          66.7649   93.6398   11.0530 C.ar    1  UNL1        0.0988
     34 C          65.6013   92.9138   10.4455 C.ar    1  UNL1        0.0207
     35 C          64.6807   92.1111   11.3161 C.ar    1  UNL1        0.0028
     36 C          64.9236   92.0344   12.7943 C.ar    1  UNL1        0.0141
@<TRIPOS>BOND
     1    23    24    1
     2    24    25    1
     3    24    22    1
     4    22     1    1
     5     1     2   ar
     6     2     3    2
     7     2     4   ar
     8     4     5    1
     9     4     6   ar
    10     6     7    2
    11     6     8   ar
    12     8     9   ar
    13     9    13    1
    14    13    14    2
    15    13    15   am
    16    15    16    1
    17    16    17    1
    18    17    18    1
    19    18    19    1
    20    18    20    1
    21     9    10   ar
    22    10    26    1
    23    26    27    1
    24    27    28   ar
    25    28    29   ar
    26    29    30   ar
    27    30    31   ar
    28    31    32   ar
    29    32    33   ar
    30    33    34   ar
    31    34    35   ar
    32    35    36   ar
    33    10    11   ar
    34    11    12   ar
    35    12     1   ar
    36    12     8   ar
    37    20    15    1
    38    36    27   ar
    39    36    31   ar
    40    19    21    1
@<TRIPOS>MOLECULE
*****
 36 40 0 0 0
SMALL
GASTEIGER

@<TRIPOS>ATOM
      1 N          65.8038   92.5579   13.7917 N.ar    1  UNL1       -0.2757
      2 C          66.0025   93.5770   12.7091 C.ar    1  UNL1        0.3342
      3 O          66.8669   94.7772   12.9584 O.2     1  UNL1       -0.2462
      4 N          65.3368   93.3958   11.3772 N.ar    1  UNL1       -0.2467
      5 C          65.5355   94.4149   10.2946 C.3     1  UNL1        0.1382
      6 C          64.4723   92.1956   11.1279 C.ar    1  UNL1        0.2663
      7 O          63.8066   92.0144    9.7960 O.2     1  UNL1       -0.2668
      8 C          64.2736   91.1765   12.2104 C.ar    1  UNL1        0.0829
      9 C          63.4842   89.9019   12.2564 C.ar    1  UNL1        0.0624
     10 C          63.6620   89.2953   13.6168 C.ar    1  UNL1        0.0176
     11 S          64.5613   90.1950   14.4115 S.2     1  UNL1       -0.0734
     12 C          64.9394   91.3577   13.5424 C.ar    1  UNL1        0.0982
     13 C          62.6614   89.3337   11.1384 C.2     1  UNL1        0.2495
     14 O          63.3114   88.9796    9.8337 O.2     1  UNL1       -0.2699
     15 N          61.1885   89.1194   11.3250 N.am    1  UNL1       -0.2735
     16 C          60.2421   88.5628   10.3031 C.3     1  UNL1        0.0964
     17 C          58.8722   88.5236   10.9127 C.3     1  UNL1        0.0525
     18 C          58.9719   89.0561   12.3115 C.3     1  UNL1        0.1320
     19 O          57.8390   89.1958   13.2847 O.3     1  UNL1       -0.3827
     20 C          60.4035   89.4243   12.5663 C.3     1  UNL1        0.1228
     21 H          58.1718   89.5653   14.1175 H       1  UNL1        0.2104
     22 C          66.4695   92.7391   15.1236 C.3     1  UNL1        0.1109
     23 C          68.6248   93.7922   16.1216 C.3     1  UNL1        0.0020
     24 C          67.9657   92.7976   15.2124 C.3     1  UNL1        0.0228
     25 C          68.8029   91.8615   14.3922 C.3     1  UNL1        0.0020
     26 C          63.0482   88.0140   14.0979 C.3     1  UNL1        0.0594
     27 C          63.8513   86.7472   14.0870 C.ar    1  UNL1       -0.0158
     28 C          64.9366   86.5385   15.1011 C.ar    1  UNL1       -0.0038
     29 C          65.7398   85.2717   15.0902 C.ar    1  UNL1        0.0012
     30 C          65.4576   84.2135   14.0652 C.ar    1  UNL1        0.0191
     31 C          64.3722   84.4222   13.0510 C.ar    1  UNL1        0.0810
     32 N          64.0900   83.3641   12.0260 N.ar    1  UNL1       -0.2438
     33 C          63.0047   83.5728   11.0119 C.ar    1  UNL1        0.0988
     34 C          62.2016   84.8396   11.0228 C.ar    1  UNL1        0.0207
     35 C          62.4838   85.8977   12.0478 C.ar    1  UNL1        0.0028
     36 C          63.5691   85.6890   13.0619 C.ar    1  UNL1        0.0141
@<TRIPOS>BOND
     1    23    24    1
     2    24    25    1
     3    24    22    1
     4    22     1    1
     5     1     2   ar
     6     2     3    2
     7     2     4   ar
     8     4     5    1
     9     4     6   ar
    10     6     7    2
    11     6     8   ar
    12     8     9   ar
    13     9    13    1
    14    13    14    2
    15    13    15   am
    16    15    16    1
    17    16    17    1
    18    17    18    1
    19    18    19    1
    20    18    20    1
    21     9    10   ar
    22    10    26    1
    23    26    27    1
    24    27    28   ar
    25    28    29   ar
    26    29    30   ar
    27    30    31   ar
    28    31    32   ar
    29    32    33   ar
    30    33    34   ar
    31    34    35   ar
    32    35    36   ar
    33    10    11   ar
    34    11    12   ar
    35    12     1   ar
    36    12     8   ar
    37    20    15    1
    38    36    27   ar
    39    36    31   ar
    40    19    21    1
@<TRIPOS>MOLECULE
*****
 36 40 0 0 0
SMALL
GASTEIGER

@<TRIPOS>ATOM
      1 N          58.3553   94.5886   -3.8128 N.ar    1  UNL1       -0.2757
      2 C          57.6432   95.2413   -4.9604 C.ar    1  UNL1        0.3342
      3 O          56.1448   95.3104   -4.9717 O.2     1  UNL1       -0.2462
      4 N          58.4294   95.8248   -6.0967 N.ar    1  UNL1       -0.2467
      5 C          57.7173   96.4774   -7.2443 C.3     1  UNL1        0.1382
      6 C          59.9278   95.7557   -6.0855 C.ar    1  UNL1        0.2663
      7 O          60.7141   96.3392   -7.2218 O.2     1  UNL1       -0.2668
      8 C          60.6399   95.1031   -4.9379 C.ar    1  UNL1        0.0829
      9 C          62.0966   94.8871   -4.6527 C.ar    1  UNL1        0.0624
     10 C          62.2106   94.1701   -3.3401 C.ar    1  UNL1        0.0176
     11 S          60.8244   93.9429   -2.8140 S.2     1  UNL1       -0.0734
     12 C          59.8536   94.5195   -3.8015 C.ar    1  UNL1        0.0982
     13 C          63.2387   95.3133   -5.5267 C.2     1  UNL1        0.2495
     14 O          63.5268   96.7718   -5.7261 O.2     1  UNL1       -0.2699
     15 N          64.0928   94.2811   -6.2012 N.am    1  UNL1       -0.2735
     16 C          65.2628   94.5546   -7.0991 C.3     1  UNL1        0.0964
     17 C          65.8198   93.2366   -7.5491 C.3     1  UNL1        0.0525
     18 C          64.9941   92.1485   -6.9294 C.3     1  UNL1        0.1320
     19 O          65.1996   90.6737   -7.1108 O.3     1  UNL1       -0.3827
     20 C          63.9267   92.7940   -6.0963 C.3     1  UNL1        0.1228
     21 H          64.5305   90.1890   -6.6025 H       1  UNL1        0.2104
     22 C          57.5690   94.0051   -2.6765 C.3     1  UNL1        0.1109
     23 C          55.6913   92.3373   -2.0112 C.3     1  UNL1        0.0020
     24 C          56.9002   92.6717   -2.8339 C.3     1  UNL1        0.0228
     25 C          57.4401   91.6729   -3.8140 C.3     1  UNL1        0.0020
     26 C          63.4868   93.7534   -2.6710 C.3     1  UNL1        0.0594
     27 C          64.2462   94.7340   -1.8273 C.ar    1  UNL1       -0.0158
     28 C          65.0076   95.8510   -2.4774 C.ar    1  UNL1       -0.0038
     29 C          65.7670   96.8316   -1.6338 C.ar    1  UNL1        0.0012
     30 C          65.7650   96.6952   -0.1400 C.ar    1  UNL1        0.0191
     31 C          65.0036   95.5782    0.5101 C.ar    1  UNL1        0.0810
     32 N          65.0016   95.4419    2.0039 N.ar    1  UNL1       -0.2438
     33 C          64.2402   94.3249    2.6540 C.ar    1  UNL1        0.0988
     34 C          63.4808   93.3443    1.8103 C.ar    1  UNL1        0.0207
     35 C          63.4828   93.4807    0.3166 C.ar    1  UNL1        0.0028
     36 C          64.2442   94.5976   -0.3335 C.ar    1  UNL1        0.0141
@<TRIPOS>BOND
     1    23    24    1
     2    24    25    1
     3    24    22    1
     4    22     1    1
     5     1     2   ar
     6     2     3    2
     7     2     4   ar
     8     4     5    1
     9     4     6   ar
    10     6     7    2
    11     6     8   ar
    12     8     9   ar
    13     9    13    1
    14    13    14    2
    15    13    15   am
    16    15    16    1
    17    16    17    1
    18    17    18    1
    19    18    19    1
    20    18    20    1
    21     9    10   ar
    22    10    26    1
    23    26    27    1
    24    27    28   ar
    25    28    29   ar
    26    29    30   ar
    27    30    31   ar
    28    31    32   ar
    29    32    33   ar
    30    33    34   ar
    31    34    35   ar
    32    35    36   ar
    33    10    11   ar
    34    11    12   ar
    35    12     1   ar
    36    12     8   ar
    37    20    15    1
    38    36    27   ar
    39    36    31   ar
    40    19    21    1
@<TRIPOS>MOLECULE
*****
 36 40 0 0 0
SMALL
GASTEIGER

@<TRIPOS>ATOM
      1 N          57.9871   94.6553   -4.2259 N.ar    1  UNL1       -0.2757
      2 C          57.4673   95.4134   -5.4114 C.ar    1  UNL1        0.3342
      3 O          55.9891   95.5282   -5.6387 O.2     1  UNL1       -0.2462
      4 N          58.4257   96.0565   -6.3694 N.ar    1  UNL1       -0.2467
      5 C          57.9058   96.8145   -7.5548 C.3     1  UNL1        0.1382
      6 C          59.9039   95.9416   -6.1420 C.ar    1  UNL1        0.2663
      7 O          60.8623   96.5848   -7.1000 O.2     1  UNL1       -0.2668
      8 C          60.4237   95.1836   -4.9567 C.ar    1  UNL1        0.0829
      9 C          61.8170   94.9031   -4.4769 C.ar    1  UNL1        0.0624
     10 C          61.7197   94.0865   -3.2224 C.ar    1  UNL1        0.0176
     11 S          60.2663   93.8624   -2.9268 S.2     1  UNL1       -0.0734
     12 C          59.4653   94.5404   -3.9986 C.ar    1  UNL1        0.0982
     13 C          63.0849   95.3590   -5.1360 C.2     1  UNL1        0.2495
     14 O          63.4630   96.8103   -5.1114 O.2     1  UNL1       -0.2699
     15 N          63.9747   94.3636   -5.8198 N.am    1  UNL1       -0.2735
     16 C          65.2665   94.6693   -6.5180 C.3     1  UNL1        0.0964
     17 C          65.8191   93.3824   -7.0550 C.3     1  UNL1        0.0525
     18 C          64.8687   92.2813   -6.6887 C.3     1  UNL1        0.1320
     19 O          65.0299   90.8286   -7.0265 O.3     1  UNL1       -0.3827
     20 C          63.7288   92.8877   -5.9253 C.3     1  UNL1        0.1228
     21 H          64.2770   90.3291   -6.6736 H       1  UNL1        0.2104
     22 C          57.0287   94.0122   -3.2679 C.3     1  UNL1        0.1109
     23 C          56.2223   91.8058   -2.1581 C.3     1  UNL1        0.0020
     24 C          56.7604   92.5387   -3.3511 C.3     1  UNL1        0.0228
     25 C          57.0303   91.7982   -4.6273 C.3     1  UNL1        0.0020
     26 C          62.8732   93.5825   -2.4068 C.3     1  UNL1        0.0594
     27 C          62.7791   93.5575   -0.9099 C.ar    1  UNL1       -0.0158
     28 C          61.8383   92.6051   -0.2334 C.ar    1  UNL1       -0.0038
     29 C          61.7442   92.5801    1.2635 C.ar    1  UNL1        0.0012
     30 C          62.5910   93.5075    2.0838 C.ar    1  UNL1        0.0191
     31 C          63.5319   94.4599    1.4072 C.ar    1  UNL1        0.0810
     32 N          64.3786   95.3873    2.2275 N.ar    1  UNL1       -0.2438
     33 C          65.3195   96.3397    1.5510 C.ar    1  UNL1        0.0988
     34 C          65.4135   96.3647    0.0541 C.ar    1  UNL1        0.0207
     35 C          64.5668   95.4374   -0.7662 C.ar    1  UNL1        0.0028
     36 C          63.6259   94.4850   -0.0896 C.ar    1  UNL1        0.0141
@<TRIPOS>BOND
     1    23    24    1
     2    24    25    1
     3    24    22    1
     4    22     1    1
     5     1     2   ar
     6     2     3    2
     7     2     4   ar
     8     4     5    1
     9     4     6   ar
    10     6     7    2
    11     6     8   ar
    12     8     9   ar
    13     9    13    1
    14    13    14    2
    15    13    15   am
    16    15    16    1
    17    16    17    1
    18    17    18    1
    19    18    19    1
    20    18    20    1
    21     9    10   ar
    22    10    26    1
    23    26    27    1
    24    27    28   ar
    25    28    29   ar
    26    29    30   ar
    27    30    31   ar
    28    31    32   ar
    29    32    33   ar
    30    33    34   ar
    31    34    35   ar
    32    35    36   ar
    33    10    11   ar
    34    11    12   ar
    35    12     1   ar
    36    12     8   ar
    37    20    15    1
    38    36    27   ar
    39    36    31   ar
    40    19    21    1
@<TRIPOS>MOLECULE
*****
 36 40 0 0 0
SMALL
GASTEIGER

@<TRIPOS>ATOM
      1 N          63.7271   85.6312   13.5027 N.ar    1  UNL1       -0.2757
      2 C          63.5101   84.4389   12.6185 C.ar    1  UNL1        0.3342
      3 O          63.7793   83.0589   13.1410 O.2     1  UNL1       -0.2462
      4 N          63.0239   84.6268   11.2120 N.ar    1  UNL1       -0.2467
      5 C          62.8070   83.4346   10.3280 C.3     1  UNL1        0.1382
      6 C          62.7548   86.0069   10.6896 C.ar    1  UNL1        0.2663
      7 O          62.2686   86.1947    9.2831 O.2     1  UNL1       -0.2668
      8 C          62.9718   87.1991   11.5736 C.ar    1  UNL1        0.0829
      9 C          62.7929   88.6695   11.3375 C.ar    1  UNL1        0.0624
     10 C          63.1685   89.3905   12.5982 C.ar    1  UNL1        0.0176
     11 S          63.5795   88.3656   13.6134 S.2     1  UNL1       -0.0734
     12 C          63.4579   87.0112   12.9802 C.ar    1  UNL1        0.0982
     13 C          62.3212   89.3071   10.0643 C.2     1  UNL1        0.2495
     14 O          63.0846   90.4548    9.4727 O.2     1  UNL1       -0.2699
     15 N          61.0862   88.7969    9.3828 N.am    1  UNL1       -0.2735
     16 C          60.4965   89.3309    8.1112 C.3     1  UNL1        0.0964
     17 C          59.2699   88.5273    7.7957 C.3     1  UNL1        0.0525
     18 C          59.1015   87.4965    8.8724 C.3     1  UNL1        0.1320
     19 O          58.0033   86.4779    8.9539 O.3     1  UNL1       -0.3827
     20 C          60.2241   87.6632    9.8533 C.3     1  UNL1        0.1228
     21 H          58.1262   85.9328    9.7468 H       1  UNL1        0.2104
     22 C          64.2132   85.4433   14.9092 C.3     1  UNL1        0.1109
     23 C          63.1534   86.3361   17.1068 C.3     1  UNL1        0.0020
     24 C          63.2274   85.2946   16.0299 C.3     1  UNL1        0.0228
     25 C          62.3156   84.1044   16.0737 C.3     1  UNL1        0.0020
     26 C          63.1384   90.8755   12.8069 C.3     1  UNL1        0.0594
     27 C          64.3317   91.7084   12.4433 C.ar    1  UNL1       -0.0158
     28 C          64.5626   92.1048   11.0152 C.ar    1  UNL1       -0.0038
     29 C          65.7560   92.9377   10.6515 C.ar    1  UNL1        0.0012
     30 C          66.7185   93.3741   11.7160 C.ar    1  UNL1        0.0191
     31 C          66.4876   92.9777   13.1442 C.ar    1  UNL1        0.0810
     32 N          67.4501   93.4142   14.2086 N.ar    1  UNL1       -0.2438
     33 C          67.2192   93.0178   15.6367 C.ar    1  UNL1        0.0988
     34 C          66.0258   92.1849   16.0004 C.ar    1  UNL1        0.0207
     35 C          65.0634   91.7484   14.9359 C.ar    1  UNL1        0.0028
     36 C          65.2942   92.1448   13.5078 C.ar    1  UNL1        0.0141
@<TRIPOS>BOND
     1    23    24    1
     2    24    25    1
     3    24    22    1
     4    22     1    1
     5     1     2   ar
     6     2     3    2
     7     2     4   ar
     8     4     5    1
     9     4     6   ar
    10     6     7    2
    11     6     8   ar
    12     8     9   ar
    13     9    13    1
    14    13    14    2
    15    13    15   am
    16    15    16    1
    17    16    17    1
    18    17    18    1
    19    18    19    1
    20    18    20    1
    21     9    10   ar
    22    10    26    1
    23    26    27    1
    24    27    28   ar
    25    28    29   ar
    26    29    30   ar
    27    30    31   ar
    28    31    32   ar
    29    32    33   ar
    30    33    34   ar
    31    34    35   ar
    32    35    36   ar
    33    10    11   ar
    34    11    12   ar
    35    12     1   ar
    36    12     8   ar
    37    20    15    1
    38    36    27   ar
    39    36    31   ar
    40    19    21    1
@<TRIPOS>MOLECULE
*****
 36 40 0 0 0
SMALL
GASTEIGER

@<TRIPOS>ATOM
      1 N          65.7072   91.3453   13.2764 N.ar    1  UNL1       -0.2757
      2 C          65.8556   92.5723   12.4264 C.ar    1  UNL1        0.3342
      3 O          66.9003   93.5951   12.7618 O.2     1  UNL1       -0.2462
      4 N          64.9594   92.7765   11.2411 N.ar    1  UNL1       -0.2467
      5 C          65.1078   94.0035   10.3912 C.3     1  UNL1        0.1382
      6 C          63.9147   91.7537   10.9058 C.ar    1  UNL1        0.2663
      7 O          63.0184   91.9578    9.7205 O.2     1  UNL1       -0.2668
      8 C          63.7662   90.5267   11.7557 C.ar    1  UNL1        0.0829
      9 C          62.8341   89.3544   11.6721 C.ar    1  UNL1        0.0624
     10 C          63.1544   88.4257   12.8057 C.ar    1  UNL1        0.0176
     11 S          64.2844   89.0240   13.5900 S.2     1  UNL1       -0.0734
     12 C          64.6625   90.3225   12.9411 C.ar    1  UNL1        0.0982
     13 C          61.7689   89.1473   10.6366 C.2     1  UNL1        0.2495
     14 O          60.6578   90.1448   10.4937 O.2     1  UNL1       -0.2699
     15 N          61.8147   87.9426    9.7440 N.am    1  UNL1       -0.2735
     16 C          60.8251   87.6036    8.6690 C.3     1  UNL1        0.0964
     17 C          61.2570   86.3169    8.0304 C.3     1  UNL1        0.0525
     18 C          62.5135   85.8606    8.7107 C.3     1  UNL1        0.1320
     19 O          63.2892   84.6178    8.3886 O.3     1  UNL1       -0.3827
     20 C          62.8582   86.8654    9.7699 C.3     1  UNL1        0.1228
     21 H          64.0598   84.5566    8.9746 H       1  UNL1        0.2104
     22 C          66.6035   91.1411   14.4617 C.3     1  UNL1        0.1109
     23 C          67.7841   92.7836   16.0923 C.3     1  UNL1        0.0020
     24 C          66.5402   92.0895   15.6221 C.3     1  UNL1        0.0228
     25 C          65.2330   92.3438   16.3124 C.3     1  UNL1        0.0020
     26 C          62.4655   87.1268   13.1028 C.3     1  UNL1        0.0594
     27 C          63.2060   86.0294   13.8081 C.ar    1  UNL1       -0.0158
     28 C          63.9120   86.3116   15.1011 C.ar    1  UNL1       -0.0038
     29 C          64.6524   85.2142   15.8064 C.ar    1  UNL1        0.0012
     30 C          64.6868   83.8346   15.2187 C.ar    1  UNL1        0.0191
     31 C          63.9807   83.5523   13.9257 C.ar    1  UNL1        0.0810
     32 N          64.0151   82.1727   13.3380 N.ar    1  UNL1       -0.2438
     33 C          63.3091   81.8905   12.0450 C.ar    1  UNL1        0.0988
     34 C          62.5687   82.9879   11.3397 C.ar    1  UNL1        0.0207
     35 C          62.5343   84.3675   11.9274 C.ar    1  UNL1        0.0028
     36 C          63.2403   84.6497   13.2204 C.ar    1  UNL1        0.0141
@<TRIPOS>BOND
     1    23    24    1
     2    24    25    1
     3    24    22    1
     4    22     1    1
     5     1     2   ar
     6     2     3    2
     7     2     4   ar
     8     4     5    1
     9     4     6   ar
    10     6     7    2
    11     6     8   ar
    12     8     9   ar
    13     9    13    1
    14    13    14    2
    15    13    15   am
    16    15    16    1
    17    16    17    1
    18    17    18    1
    19    18    19    1
    20    18    20    1
    21     9    10   ar
    22    10    26    1
    23    26    27    1
    24    27    28   ar
    25    28    29   ar
    26    29    30   ar
    27    30    31   ar
    28    31    32   ar
    29    32    33   ar
    30    33    34   ar
    31    34    35   ar
    32    35    36   ar
    33    10    11   ar
    34    11    12   ar
    35    12     1   ar
    36    12     8   ar
    37    20    15    1
    38    36    27   ar
    39    36    31   ar
    40    19    21    1
