@<TRIPOS>MOLECULE
*****
 38 41 0 0 0
SMALL
GASTEIGER

@<TRIPOS>ATOM
      1 N          62.9720   90.6595   11.6338 N.am    1  UNL1       -0.2438
      2 C          63.3507   91.4259   10.4013 C.3     1  UNL1        0.1009
      3 C          64.5337   92.3479   10.4253 C.3     1  UNL1        0.0661
      4 C          65.3380   92.5034   11.6818 C.3     1  UNL1        0.1591
      5 O          64.9593   91.7369   12.9145 O.3     1  UNL1       -0.4375
      6 C          63.7763   90.8150   12.8905 C.2     1  UNL1        0.4051
      7 O          63.3976   90.0486   14.1230 O.2     1  UNL1       -0.2262
      8 C          66.0863   93.4363   10.7765 C.ar    1  UNL1        0.0139
      9 C          67.1771   92.9090    9.8921 C.ar    1  UNL1        0.0014
     10 C          67.9254   93.8420    8.9867 C.ar    1  UNL1        0.0294
     11 C          67.5829   95.3022    8.9658 C.ar    1  UNL1        0.1401
     12 F          68.3312   96.2352    8.0604 F       1  UNL1       -0.2042
     13 C          66.4921   95.8295    9.8502 C.ar    1  UNL1        0.0294
     14 C          65.7438   94.8965   10.7556 C.ar    1  UNL1        0.0014
     15 C          60.3993   90.3013   11.5788 C.3     1  UNL1        0.0265
     16 C          61.7890   89.7376   11.6099 C.3     1  UNL1        0.1011
     17 C          61.9957   88.2519   11.6169 C.ar    1  UNL1       -0.0042
     18 C          63.0711   87.6484   12.4708 C.ar    1  UNL1       -0.0027
     19 C          63.2778   86.1627   12.4779 C.ar    1  UNL1       -0.0002
     20 C          62.4090   85.2806   11.6310 C.ar    1  UNL1        0.0021
     21 C          61.3336   85.8841   10.7771 C.ar    1  UNL1       -0.0002
     22 C          61.1270   87.3698   10.7701 C.ar    1  UNL1       -0.0027
     23 C          62.6158   83.7949   11.6381 C.ar    1  UNL1        0.0276
     24 C          62.1739   82.9818   12.8186 C.ar    1  UNL1        0.0045
     25 C          62.3807   81.4961   12.8257 C.ar    1  UNL1        0.0298
     26 C          63.0292   80.8235   11.6522 C.ar    1  UNL1        0.1424
     27 F          63.2359   79.3379   11.6593 F       1  UNL1       -0.2041
     28 C          63.4710   81.6367   10.4717 C.ar    1  UNL1        0.0592
     29 C          63.2643   83.1223   10.4646 C.ar    1  UNL1        0.1423
     30 F          63.7061   83.9355    9.2841 F       1  UNL1       -0.2041
     31 C          66.4022   92.9829   12.6240 C.3     1  UNL1        0.0633
     32 C          67.3223   91.9969   13.2806 C.3     1  UNL1        0.0950
     33 N          67.4506   91.9708   14.7749 N.3     1  UNL1       -0.1831
     34 H          67.8998   91.0875   15.0165 H       1  UNL1        0.1484
     35 S          68.2136   93.0520   15.4811 S.O2    1  UNL1        0.0426
     36 C          68.9766   94.1333   16.1875 C.3     1  UNL1        0.1957
     37 O          69.3605   92.8619   14.5333 O.2     1  UNL1       -0.1575
     38 O          67.0666   93.2422   16.4290 O.2     1  UNL1       -0.1575
@<TRIPOS>BOND
     1    16    15    1
     2    16    17    1
     3    17    18   ar
     4    18    19   ar
     5    19    20   ar
     6    20    23    1
     7    23    24   ar
     8    24    25   ar
     9    25    26   ar
    10    26    27    1
    11    26    28   ar
    12    28    29   ar
    13    29    30    1
    14    20    21   ar
    15    21    22   ar
    16    16     1    1
    17     1     2    1
    18     2     3    1
    19     3     4    1
    20     4    31    1
    21    31    32    1
    22    32    33    1
    23    33    35    1
    24    35    36    1
    25    35    37    2
    26    35    38    2
    27     4     8    1
    28     8     9   ar
    29     9    10   ar
    30    10    11   ar
    31    11    12    1
    32    11    13   ar
    33    13    14   ar
    34     4     5    1
    35     5     6    1
    36     6     7    2
    37    22    17   ar
    38     6     1   am
    39    29    23   ar
    40    14     8   ar
    41    33    34    1
@<TRIPOS>MOLECULE
*****
 38 41 0 0 0
SMALL
GASTEIGER

@<TRIPOS>ATOM
      1 N          63.2734   90.3109   12.0491 N.am    1  UNL1       -0.2438
      2 C          64.0003   90.2033   13.3568 C.3     1  UNL1        0.1009
      3 C          65.1991   91.0651   13.6216 C.3     1  UNL1        0.0661
      4 C          65.6711   92.0345   12.5788 C.3     1  UNL1        0.1591
      5 O          64.9442   92.1421   11.2710 O.3     1  UNL1       -0.4375
      6 C          63.7454   91.2803   11.0062 C.2     1  UNL1        0.4051
      7 O          63.0186   91.3879    9.6985 O.2     1  UNL1       -0.2262
      8 C          66.6840   92.2950   13.6541 C.ar    1  UNL1        0.0139
      9 C          66.2533   92.8894   14.9622 C.ar    1  UNL1        0.0014
     10 C          67.2662   93.1499   16.0374 C.ar    1  UNL1        0.0294
     11 C          68.7099   92.8160   15.8044 C.ar    1  UNL1        0.1401
     12 F          69.7229   93.0764   16.8797 F       1  UNL1       -0.2042
     13 C          69.1407   92.2216   14.4963 C.ar    1  UNL1        0.0294
     14 C          68.1277   91.9611   13.4211 C.ar    1  UNL1        0.0014
     15 C          60.7375   90.0808   11.5334 C.3     1  UNL1        0.0265
     16 C          62.0746   89.4491   11.7842 C.3     1  UNL1        0.1011
     17 C          62.2130   87.9555   11.7702 C.ar    1  UNL1       -0.0042
     18 C          63.1409   87.2792   12.7353 C.ar    1  UNL1       -0.0027
     19 C          63.2792   85.7857   12.7212 C.ar    1  UNL1       -0.0002
     20 C          62.4897   84.9685   11.7420 C.ar    1  UNL1        0.0021
     21 C          61.5618   85.6449   10.7768 C.ar    1  UNL1       -0.0002
     22 C          61.4235   87.1384   10.7909 C.ar    1  UNL1       -0.0027
     23 C          62.6280   83.4749   11.7279 C.ar    1  UNL1        0.0276
     24 C          62.1907   82.6700   12.9156 C.ar    1  UNL1        0.0045
     25 C          62.3290   81.1764   12.9015 C.ar    1  UNL1        0.0298
     26 C          62.9048   80.4878   11.6997 C.ar    1  UNL1        0.1424
     27 F          63.0432   78.9943   11.6856 F       1  UNL1       -0.2041
     28 C          63.3422   81.2929   10.5120 C.ar    1  UNL1        0.0592
     29 C          63.2038   82.7864   10.5261 C.ar    1  UNL1        0.1423
     30 F          63.6412   83.5914    9.3383 F       1  UNL1       -0.2041
     31 C          66.4949   93.0944   11.9094 C.3     1  UNL1        0.0633
     32 C          65.8232   94.1842   11.1277 C.3     1  UNL1        0.0950
     33 N          66.1318   94.3616    9.6705 N.3     1  UNL1       -0.1831
     34 H          65.2434   94.3057    9.1725 H       1  UNL1        0.1484
     35 S          66.8170   95.6085    9.1955 S.O2    1  UNL1        0.0426
     36 C          67.5022   96.8555    8.7205 C.3     1  UNL1        0.1957
     37 O          67.2102   94.9096    7.9279 O.2     1  UNL1       -0.1575
     38 O          66.4237   96.3074   10.4631 O.2     1  UNL1       -0.1575
@<TRIPOS>BOND
     1    16    15    1
     2    16    17    1
     3    17    18   ar
     4    18    19   ar
     5    19    20   ar
     6    20    23    1
     7    23    24   ar
     8    24    25   ar
     9    25    26   ar
    10    26    27    1
    11    26    28   ar
    12    28    29   ar
    13    29    30    1
    14    20    21   ar
    15    21    22   ar
    16    16     1    1
    17     1     2    1
    18     2     3    1
    19     3     4    1
    20     4    31    1
    21    31    32    1
    22    32    33    1
    23    33    35    1
    24    35    36    1
    25    35    37    2
    26    35    38    2
    27     4     8    1
    28     8     9   ar
    29     9    10   ar
    30    10    11   ar
    31    11    12    1
    32    11    13   ar
    33    13    14   ar
    34     4     5    1
    35     5     6    1
    36     6     7    2
    37    22    17   ar
    38     6     1   am
    39    29    23   ar
    40    14     8   ar
    41    33    34    1
@<TRIPOS>MOLECULE
*****
 38 41 0 0 0
SMALL
GASTEIGER

@<TRIPOS>ATOM
      1 N          63.7903   88.5458   14.9020 N.am    1  UNL1       -0.2438
      2 C          63.9728   88.0176   13.5100 C.3     1  UNL1        0.1009
      3 C          63.8765   86.5437   13.2485 C.3     1  UNL1        0.0661
      4 C          63.5978   85.5981   14.3789 C.3     1  UNL1        0.1591
      5 O          63.4153   86.1263   15.7710 O.3     1  UNL1       -0.4375
      6 C          63.5115   87.6002   16.0325 C.2     1  UNL1        0.4051
      7 O          63.3290   88.1284   17.4245 O.2     1  UNL1       -0.2262
      8 C          63.6952   84.6239   13.2424 C.ar    1  UNL1        0.0139
      9 C          64.8473   83.6658   13.1726 C.ar    1  UNL1        0.0014
     10 C          64.9447   82.6916   12.0361 C.ar    1  UNL1        0.0294
     11 C          63.8901   82.6757   10.9696 C.ar    1  UNL1        0.1401
     12 F          63.9876   81.7015    9.8331 F       1  UNL1       -0.2042
     13 C          62.7381   83.6338   11.0394 C.ar    1  UNL1        0.0294
     14 C          62.6407   84.6079   12.1759 C.ar    1  UNL1        0.0014
     15 C          63.3956   90.5844   16.4635 C.3     1  UNL1        0.0265
     16 C          63.8865   90.0197   15.1635 C.3     1  UNL1        0.1011
     17 C          64.4737   90.9290   14.1249 C.ar    1  UNL1       -0.0042
     18 C          63.7780   91.1120   12.8086 C.ar    1  UNL1       -0.0027
     19 C          64.3652   92.0212   11.7701 C.ar    1  UNL1       -0.0002
     20 C          65.6480   92.7473   12.0479 C.ar    1  UNL1        0.0021
     21 C          66.3436   92.5643   13.3641 C.ar    1  UNL1       -0.0002
     22 C          65.7564   91.6551   14.4026 C.ar    1  UNL1       -0.0027
     23 C          66.2351   93.6566   11.0093 C.ar    1  UNL1        0.0276
     24 C          65.7922   95.0874   10.9282 C.ar    1  UNL1        0.0045
     25 C          66.3794   95.9966    9.8896 C.ar    1  UNL1        0.0298
     26 C          67.4094   95.4750    8.9321 C.ar    1  UNL1        0.1424
     27 F          67.9966   96.3841    7.8935 F       1  UNL1       -0.2041
     28 C          67.8523   94.0441    9.0132 C.ar    1  UNL1        0.0592
     29 C          67.2652   93.1349   10.0517 C.ar    1  UNL1        0.1423
     30 F          67.7081   91.7041   10.1328 F       1  UNL1       -0.2041
     31 C          63.3529   84.3140   15.1147 C.3     1  UNL1        0.0633
     32 C          62.1030   83.5269   14.8540 C.3     1  UNL1        0.0950
     33 N          62.0526   82.0660   15.1911 N.3     1  UNL1       -0.1831
     34 H          61.1554   81.8998   15.6469 H       1  UNL1        0.1484
     35 S          62.1826   81.0407   14.1040 S.O2    1  UNL1        0.0426
     36 C          62.3125   80.0153   13.0169 C.3     1  UNL1        0.1957
     37 O          63.6464   80.9088   14.4034 O.2     1  UNL1       -0.1575
     38 O          60.7187   81.1726   13.8046 O.2     1  UNL1       -0.1575
@<TRIPOS>BOND
     1    16    15    1
     2    16    17    1
     3    17    18   ar
     4    18    19   ar
     5    19    20   ar
     6    20    23    1
     7    23    24   ar
     8    24    25   ar
     9    25    26   ar
    10    26    27    1
    11    26    28   ar
    12    28    29   ar
    13    29    30    1
    14    20    21   ar
    15    21    22   ar
    16    16     1    1
    17     1     2    1
    18     2     3    1
    19     3     4    1
    20     4    31    1
    21    31    32    1
    22    32    33    1
    23    33    35    1
    24    35    36    1
    25    35    37    2
    26    35    38    2
    27     4     8    1
    28     8     9   ar
    29     9    10   ar
    30    10    11   ar
    31    11    12    1
    32    11    13   ar
    33    13    14   ar
    34     4     5    1
    35     5     6    1
    36     6     7    2
    37    22    17   ar
    38     6     1   am
    39    29    23   ar
    40    14     8   ar
    41    33    34    1
@<TRIPOS>MOLECULE
*****
 38 41 0 0 0
SMALL
GASTEIGER

@<TRIPOS>ATOM
      1 N          62.4957   87.9548   12.3830 N.am    1  UNL1       -0.2438
      2 C          62.0900   86.8992   11.3976 C.3     1  UNL1        0.1009
      3 C          62.5856   85.4926   11.5587 C.3     1  UNL1        0.0661
      4 C          63.4869   85.1417   12.7051 C.3     1  UNL1        0.1591
      5 O          63.8926   86.1973   13.6907 O.3     1  UNL1       -0.4375
      6 C          63.3970   87.6038   13.5296 C.2     1  UNL1        0.4051
      7 O          63.8027   88.6594   14.5150 O.2     1  UNL1       -0.2262
      8 C          63.3815   83.8026   12.0373 C.ar    1  UNL1        0.0139
      9 C          64.1408   83.5338   10.7720 C.ar    1  UNL1        0.0014
     10 C          64.0354   82.1947   10.1042 C.ar    1  UNL1        0.0294
     11 C          63.1706   81.1247   10.7017 C.ar    1  UNL1        0.1401
     12 F          63.0652   79.7856   10.0339 F       1  UNL1       -0.2042
     13 C          62.4113   81.3935   11.9671 C.ar    1  UNL1        0.0294
     14 C          62.5167   82.7326   12.6349 C.ar    1  UNL1        0.0014
     15 C          60.5761   89.6973   12.5523 C.3     1  UNL1        0.0265
     16 C          62.0002   89.3614   12.2219 C.3     1  UNL1        0.1011
     17 C          62.9287   90.4321   11.7305 C.ar    1  UNL1       -0.0042
     18 C          62.8549   90.8925   10.3049 C.ar    1  UNL1       -0.0027
     19 C          63.7834   91.9632    9.8135 C.ar    1  UNL1       -0.0002
     20 C          64.7858   92.5734   10.7478 C.ar    1  UNL1        0.0021
     21 C          64.8597   92.1129   12.1734 C.ar    1  UNL1       -0.0002
     22 C          63.9311   91.0423   12.6648 C.ar    1  UNL1       -0.0027
     23 C          65.7144   93.6441   10.2563 C.ar    1  UNL1        0.0276
     24 C          65.3022   95.0846   10.3266 C.ar    1  UNL1        0.0045
     25 C          66.2308   96.1553    9.8352 C.ar    1  UNL1        0.0298
     26 C          67.5716   95.7854    9.2735 C.ar    1  UNL1        0.1424
     27 F          68.5001   96.8560    8.7821 F       1  UNL1       -0.2041
     28 C          67.9837   94.3448    9.2032 C.ar    1  UNL1        0.0592
     29 C          67.0552   93.2742    9.6946 C.ar    1  UNL1        0.1423
     30 F          67.4674   91.8336    9.6244 F       1  UNL1       -0.2041
     31 C          64.3515   84.3256   13.6198 C.3     1  UNL1        0.0633
     32 C          64.0477   84.2701   15.0876 C.3     1  UNL1        0.0950
     33 N          62.7181   84.7427   15.5967 N.3     1  UNL1       -0.1831
     34 H          62.1905   83.9101   15.8591 H       1  UNL1        0.1484
     35 S          62.6530   85.6825   16.7639 S.O2    1  UNL1        0.0426
     36 C          62.5881   86.6223   17.9312 C.3     1  UNL1        0.1957
     37 O          61.1548   85.6659   16.6938 O.2     1  UNL1       -0.1575
     38 O          64.1514   85.6990   16.8340 O.2     1  UNL1       -0.1575
@<TRIPOS>BOND
     1    16    15    1
     2    16    17    1
     3    17    18   ar
     4    18    19   ar
     5    19    20   ar
     6    20    23    1
     7    23    24   ar
     8    24    25   ar
     9    25    26   ar
    10    26    27    1
    11    26    28   ar
    12    28    29   ar
    13    29    30    1
    14    20    21   ar
    15    21    22   ar
    16    16     1    1
    17     1     2    1
    18     2     3    1
    19     3     4    1
    20     4    31    1
    21    31    32    1
    22    32    33    1
    23    33    35    1
    24    35    36    1
    25    35    37    2
    26    35    38    2
    27     4     8    1
    28     8     9   ar
    29     9    10   ar
    30    10    11   ar
    31    11    12    1
    32    11    13   ar
    33    13    14   ar
    34     4     5    1
    35     5     6    1
    36     6     7    2
    37    22    17   ar
    38     6     1   am
    39    29    23   ar
    40    14     8   ar
    41    33    34    1
@<TRIPOS>MOLECULE
*****
 38 41 0 0 0
SMALL
GASTEIGER

@<TRIPOS>ATOM
      1 N          62.7901   90.7487   11.1599 N.am    1  UNL1       -0.2438
      2 C          63.3483   91.4754    9.9724 C.3     1  UNL1        0.1009
      3 C          64.4623   92.4635   10.1534 C.3     1  UNL1        0.0661
      4 C          65.0181   92.7247   11.5218 C.3     1  UNL1        0.1591
      5 O          64.4599   91.9979   12.7094 O.3     1  UNL1       -0.4375
      6 C          63.3459   91.0099   12.5284 C.2     1  UNL1        0.4051
      7 O          62.7877   90.2831   13.7159 O.2     1  UNL1       -0.2262
      8 C          65.8724   93.6544   10.7119 C.ar    1  UNL1        0.0139
      9 C          65.5607   95.1213   10.6778 C.ar    1  UNL1        0.0014
     10 C          66.4150   96.0509    9.8679 C.ar    1  UNL1        0.0294
     11 C          67.5809   95.5137    9.0921 C.ar    1  UNL1        0.1401
     12 F          68.4352   96.4434    8.2822 F       1  UNL1       -0.2042
     13 C          67.8927   94.0468    9.1262 C.ar    1  UNL1        0.0294
     14 C          67.0384   93.1172    9.9362 C.ar    1  UNL1        0.0014
     15 C          60.3311   90.2254   10.5047 C.3     1  UNL1        0.0265
     16 C          61.6761   89.7606   10.9789 C.3     1  UNL1        0.1011
     17 C          61.9072   88.3078   11.2720 C.ar    1  UNL1       -0.0042
     18 C          61.0441   87.2655   10.6248 C.ar    1  UNL1       -0.0027
     19 C          61.2753   85.8128   10.9180 C.ar    1  UNL1       -0.0002
     20 C          62.3694   85.4022   11.8584 C.ar    1  UNL1        0.0021
     21 C          63.2325   86.4444   12.5055 C.ar    1  UNL1       -0.0002
     22 C          63.0014   87.8972   12.2124 C.ar    1  UNL1       -0.0027
     23 C          62.6005   83.9493   12.1515 C.ar    1  UNL1        0.0276
     24 C          63.0141   83.0186   11.0504 C.ar    1  UNL1        0.0045
     25 C          63.2451   81.5657   11.3435 C.ar    1  UNL1        0.0298
     26 C          63.0626   81.0437   12.7379 C.ar    1  UNL1        0.1424
     27 F          63.2937   79.5909   13.0311 F       1  UNL1       -0.2041
     28 C          62.6491   81.9746   13.8391 C.ar    1  UNL1        0.0592
     29 C          62.4180   83.4273   13.5459 C.ar    1  UNL1        0.1423
     30 F          62.0044   84.3582   14.6471 F       1  UNL1       -0.2041
     31 C          65.8707   93.3089   12.6091 C.3     1  UNL1        0.0633
     32 C          66.5898   92.4047   13.5657 C.3     1  UNL1        0.0950
     33 N          66.4117   92.5832   15.0444 N.3     1  UNL1       -0.1831
     34 H          66.2762   93.5811   15.2063 H       1  UNL1        0.1484
     35 S          65.2984   91.8739   15.7567 S.O2    1  UNL1        0.0426
     36 C          64.1851   91.1644   16.4690 C.3     1  UNL1        0.1957
     37 O          64.9901   93.1263   16.5223 O.2     1  UNL1       -0.1575
     38 O          65.6067   90.6214   14.9910 O.2     1  UNL1       -0.1575
@<TRIPOS>BOND
     1    16    15    1
     2    16    17    1
     3    17    18   ar
     4    18    19   ar
     5    19    20   ar
     6    20    23    1
     7    23    24   ar
     8    24    25   ar
     9    25    26   ar
    10    26    27    1
    11    26    28   ar
    12    28    29   ar
    13    29    30    1
    14    20    21   ar
    15    21    22   ar
    16    16     1    1
    17     1     2    1
    18     2     3    1
    19     3     4    1
    20     4    31    1
    21    31    32    1
    22    32    33    1
    23    33    35    1
    24    35    36    1
    25    35    37    2
    26    35    38    2
    27     4     8    1
    28     8     9   ar
    29     9    10   ar
    30    10    11   ar
    31    11    12    1
    32    11    13   ar
    33    13    14   ar
    34     4     5    1
    35     5     6    1
    36     6     7    2
    37    22    17   ar
    38     6     1   am
    39    29    23   ar
    40    14     8   ar
    41    33    34    1
@<TRIPOS>MOLECULE
*****
 38 41 0 0 0
SMALL
GASTEIGER

@<TRIPOS>ATOM
      1 N          62.0221   88.0786   11.1471 N.am    1  UNL1       -0.2438
      2 C          61.5553   88.1165    9.7220 C.3     1  UNL1        0.1009
      3 C          61.7485   86.9205    8.8376 C.3     1  UNL1        0.0661
      4 C          62.4083   85.6867    9.3781 C.3     1  UNL1        0.1591
      5 O          62.8751   85.6488   10.8031 O.3     1  UNL1       -0.4375
      6 C          62.6819   86.8448   11.6876 C.2     1  UNL1        0.4051
      7 O          63.1487   86.8069   13.1126 O.2     1  UNL1       -0.2262
      8 C          62.1382   85.2424    7.9710 C.ar    1  UNL1        0.0139
      9 C          63.2707   84.7941    7.0956 C.ar    1  UNL1        0.0014
     10 C          63.0005   84.3499    5.6885 C.ar    1  UNL1        0.0294
     11 C          61.5979   84.3540    5.1571 C.ar    1  UNL1        0.1401
     12 F          61.3277   83.9098    3.7500 F       1  UNL1       -0.2042
     13 C          60.4654   84.8024    6.0325 C.ar    1  UNL1        0.0294
     14 C          60.7355   85.2466    7.4395 C.ar    1  UNL1        0.0014
     15 C          60.4477   89.7958   12.2972 C.3     1  UNL1        0.0265
     16 C          61.8289   89.2746   12.0315 C.3     1  UNL1        0.1011
     17 C          63.0171   89.9495   12.6504 C.ar    1  UNL1       -0.0042
     18 C          63.4731   89.5544   14.0237 C.ar    1  UNL1       -0.0027
     19 C          64.6612   90.2293   14.6424 C.ar    1  UNL1       -0.0002
     20 C          65.3933   91.2992   13.8879 C.ar    1  UNL1        0.0021
     21 C          64.9374   91.6942   12.5146 C.ar    1  UNL1       -0.0002
     22 C          63.7492   91.0194   11.8959 C.ar    1  UNL1       -0.0027
     23 C          66.5815   91.9740   14.5068 C.ar    1  UNL1        0.0276
     24 C          67.8928   92.0000   13.7788 C.ar    1  UNL1        0.0045
     25 C          69.0809   92.6748   14.3977 C.ar    1  UNL1        0.0298
     26 C          68.9578   93.3237   15.7445 C.ar    1  UNL1        0.1424
     27 F          70.1459   93.9985   16.3633 F       1  UNL1       -0.2041
     28 C          67.6465   93.2977   16.4724 C.ar    1  UNL1        0.0592
     29 C          66.4584   92.6228   15.8536 C.ar    1  UNL1        0.1423
     30 F          65.1471   92.5968   16.5815 F       1  UNL1       -0.2041
     31 C          62.9744   84.2985    9.4299 C.3     1  UNL1        0.0633
     32 C          63.6403   83.8064   10.6806 C.3     1  UNL1        0.0950
     33 N          62.9274   82.8398   11.5794 N.3     1  UNL1       -0.1831
     34 H          63.1279   81.9049   11.2243 H       1  UNL1        0.1484
     35 S          63.2296   82.8191   13.0485 S.O2    1  UNL1        0.0426
     36 C          63.5319   82.7985   14.5176 C.3     1  UNL1        0.1957
     37 O          62.0104   81.9788   13.2875 O.2     1  UNL1       -0.1575
     38 O          64.4489   83.6596   12.8094 O.2     1  UNL1       -0.1575
@<TRIPOS>BOND
     1    16    15    1
     2    16    17    1
     3    17    18   ar
     4    18    19   ar
     5    19    20   ar
     6    20    23    1
     7    23    24   ar
     8    24    25   ar
     9    25    26   ar
    10    26    27    1
    11    26    28   ar
    12    28    29   ar
    13    29    30    1
    14    20    21   ar
    15    21    22   ar
    16    16     1    1
    17     1     2    1
    18     2     3    1
    19     3     4    1
    20     4    31    1
    21    31    32    1
    22    32    33    1
    23    33    35    1
    24    35    36    1
    25    35    37    2
    26    35    38    2
    27     4     8    1
    28     8     9   ar
    29     9    10   ar
    30    10    11   ar
    31    11    12    1
    32    11    13   ar
    33    13    14   ar
    34     4     5    1
    35     5     6    1
    36     6     7    2
    37    22    17   ar
    38     6     1   am
    39    29    23   ar
    40    14     8   ar
    41    33    34    1
