@<TRIPOS>MOLECULE
*****
 39 44 0 0 0
SMALL
GASTEIGER

@<TRIPOS>ATOM
      1 C          58.6156   88.9531    6.6933 C.3     1  UNL1        0.2374
      2 C          59.4313   88.0008    7.5166 C.3     1  UNL1        0.1909
      3 C          59.1780   86.5307    7.6736 C.3     1  UNL1        0.1783
      4 O          60.2337   85.9727    8.5814 O.3     1  UNL1       -0.3267
      5 C          61.1395   87.0980    8.9856 C.3     1  UNL1        0.2296
      6 O          60.6436   88.3514    8.3275 O.3     1  UNL1       -0.3255
      7 C          61.8560   86.0333    9.7621 C.ar    1  UNL1        0.0409
      8 C          61.6106   85.8854   11.2344 C.ar    1  UNL1        0.0022
      9 C          62.3271   84.8206   12.0110 C.ar    1  UNL1        0.0113
     10 C          63.2890   83.9039   11.3152 C.ar    1  UNL1        0.0585
     11 CL         64.0055   82.8392   12.0917 Cl      1  UNL1       -0.0822
     12 C          63.5345   84.0518    9.8427 C.ar    1  UNL1        0.0226
     13 C          62.8179   85.1165    9.0662 C.ar    1  UNL1        0.0591
     14 CL         63.0633   85.2644    7.5938 Cl      1  UNL1       -0.0824
     15 C          62.1951   88.0007    9.5521 C.3     1  UNL1        0.1682
     16 N          61.9299   88.7639   10.8159 N.ar    1  UNL1       -0.3025
     17 C          62.9670   89.2716   11.7733 C.ar    1  UNL1        0.0982
     18 C          62.2592   89.9748   12.8933 C.ar    1  UNL1        0.1193
     19 N          60.7846   89.9016   12.6282 N.ar    1  UNL1       -0.2223
     20 C          60.5811   89.1532   11.3443 C.ar    1  UNL1        0.1788
     21 O          58.9436   90.4168    6.6949 O.3     1  UNL1       -0.4727
     22 C          61.0115   92.2628    3.1500 C.ar    1  UNL1        0.0481
     23 C          61.7256   91.2442    3.9881 C.ar    1  UNL1        0.0176
     24 C          61.0363   90.6288    5.1698 C.ar    1  UNL1        0.0382
     25 C          59.6329   91.0321    5.5133 C.ar    1  UNL1        0.1388
     26 C          58.9189   92.0508    4.6751 C.ar    1  UNL1        0.0382
     27 C          59.6082   92.6661    3.4935 C.ar    1  UNL1        0.0176
     28 N          63.0794   94.1088   -0.3948 N.3     1  UNL1       -0.1560
     29 C          63.8875   93.5748    0.7505 C.3     1  UNL1        0.1168
     30 C          63.1982   92.9595    1.9321 C.3     1  UNL1        0.1099
     31 N          61.7008   92.8781    1.9683 N.pl3   1  UNL1       -0.3045
     32 C          60.8928   93.4121    0.8230 C.3     1  UNL1        0.1099
     33 C          61.5821   94.0274   -0.3586 C.3     1  UNL1        0.1168
     34 O          64.9722   95.0071   -0.7271 O.2     1  UNL1       -0.1573
     35 S          63.7687   94.7241   -1.5765 S.O2    1  UNL1        0.0422
     36 O          62.5652   94.4412   -2.4259 O.2     1  UNL1       -0.1573
     37 C          64.4580   95.3395   -2.7581 C.3     1  UNL1        0.1459
     38 C          65.2560   96.4585   -3.3589 C.3     1  UNL1        0.0270
     39 C          64.8539   95.2863   -4.2039 C.3     1  UNL1        0.0270
@<TRIPOS>BOND
     1    34    35    2
     2    35    36    2
     3    35    37    1
     4    37    38    1
     5    38    39    1
     6    35    28    1
     7    28    29    1
     8    29    30    1
     9    30    31    1
    10    31    22    1
    11    22    23   ar
    12    23    24   ar
    13    24    25   ar
    14    25    21    1
    15    21     1    1
    16     2     1    1
    17     2     3    1
    18     3     4    1
    19     4     5    1
    20     5    15    1
    21    15    16    1
    22    16    17   ar
    23    17    18   ar
    24    18    19   ar
    25    19    20   ar
    26     5     7    1
    27     7     8   ar
    28     8     9   ar
    29     9    10   ar
    30    10    11    1
    31    10    12   ar
    32    12    13   ar
    33    13    14    1
    34     5     6    1
    35    25    26   ar
    36    26    27   ar
    37    31    32    1
    38    32    33    1
    39    39    37    1
    40    33    28    1
    41    27    22   ar
    42     6     2    1
    43    20    16   ar
    44    13     7   ar
@<TRIPOS>MOLECULE
*****
 39 44 0 0 0
SMALL
GASTEIGER

@<TRIPOS>ATOM
      1 C          62.0527   86.0593   16.8128 C.3     1  UNL1        0.2374
      2 C          62.2491   85.0546   15.7163 C.3     1  UNL1        0.1909
      3 C          61.9368   83.5897   15.7965 C.3     1  UNL1        0.1783
      4 O          62.2870   82.9682   14.4769 O.3     1  UNL1       -0.3267
      5 C          62.8156   84.0492   13.5812 C.3     1  UNL1        0.2296
      6 O          62.7921   85.3386   14.3473 O.3     1  UNL1       -0.3255
      7 C          62.9556   82.9371   12.5844 C.ar    1  UNL1        0.0409
      8 C          63.7811   83.1376   11.3482 C.ar    1  UNL1        0.0022
      9 C          63.9212   82.0255   10.3513 C.ar    1  UNL1        0.0113
     10 C          63.2358   80.7130   10.5908 C.ar    1  UNL1        0.0585
     11 CL         63.3758   79.6009    9.5940 Cl      1  UNL1       -0.0822
     12 C          62.4102   80.5124   11.8271 C.ar    1  UNL1        0.0226
     13 C          62.2702   81.6245   12.8239 C.ar    1  UNL1        0.0591
     14 CL         61.4447   81.4240   14.0601 Cl      1  UNL1       -0.0824
     15 C          63.3735   84.8976   12.4772 C.3     1  UNL1        0.1682
     16 N          62.5429   85.9961   11.8827 N.ar    1  UNL1       -0.3025
     17 C          61.3005   85.8164   11.0618 C.ar    1  UNL1        0.0982
     18 C          60.7987   87.1764   10.6765 C.ar    1  UNL1        0.1193
     19 N          61.7311   88.1968   11.2592 N.ar    1  UNL1       -0.2223
     20 C          62.8091   87.4673   12.0047 C.ar    1  UNL1        0.1788
     21 O          63.1775   86.9705   17.2055 O.3     1  UNL1       -0.4727
     22 C          64.4528   90.2886   14.4461 C.ar    1  UNL1        0.0481
     23 C          63.6238   90.5975   15.6575 C.ar    1  UNL1        0.0176
     24 C          63.1987   89.4914   16.5773 C.ar    1  UNL1        0.0382
     25 C          63.6026   88.0765   16.2857 C.ar    1  UNL1        0.1388
     26 C          64.4316   87.7677   15.0743 C.ar    1  UNL1        0.0382
     27 C          64.8567   88.8738   14.1545 C.ar    1  UNL1        0.0176
     28 N          65.7280   93.6066   11.6867 N.3     1  UNL1       -0.1560
     29 C          64.6947   92.6152   11.2402 C.3     1  UNL1        0.1168
     30 C          64.2697   91.5093   12.1600 C.3     1  UNL1        0.1099
     31 N          64.8779   91.3947   13.5263 N.pl3   1  UNL1       -0.3045
     32 C          65.9112   92.3861   13.9729 C.3     1  UNL1        0.1099
     33 C          66.3362   93.4920   13.0531 C.3     1  UNL1        0.1168
     34 O          65.8801   95.7163   11.8477 O.2     1  UNL1       -0.1573
     35 S          66.1531   94.7127   10.7669 S.O2    1  UNL1        0.0422
     36 O          66.4261   93.7090    9.6861 O.2     1  UNL1       -0.1573
     37 C          66.5782   95.8187    9.8471 C.3     1  UNL1        0.1459
     38 C          66.2654   96.7769    8.7363 C.3     1  UNL1        0.0270
     39 C          67.6273   96.7763    9.3650 C.3     1  UNL1        0.0270
@<TRIPOS>BOND
     1    34    35    2
     2    35    36    2
     3    35    37    1
     4    37    38    1
     5    38    39    1
     6    35    28    1
     7    28    29    1
     8    29    30    1
     9    30    31    1
    10    31    22    1
    11    22    23   ar
    12    23    24   ar
    13    24    25   ar
    14    25    21    1
    15    21     1    1
    16     2     1    1
    17     2     3    1
    18     3     4    1
    19     4     5    1
    20     5    15    1
    21    15    16    1
    22    16    17   ar
    23    17    18   ar
    24    18    19   ar
    25    19    20   ar
    26     5     7    1
    27     7     8   ar
    28     8     9   ar
    29     9    10   ar
    30    10    11    1
    31    10    12   ar
    32    12    13   ar
    33    13    14    1
    34     5     6    1
    35    25    26   ar
    36    26    27   ar
    37    31    32    1
    38    32    33    1
    39    39    37    1
    40    33    28    1
    41    27    22   ar
    42     6     2    1
    43    20    16   ar
    44    13     7   ar
@<TRIPOS>MOLECULE
*****
 39 44 0 0 0
SMALL
GASTEIGER

@<TRIPOS>ATOM
      1 C          63.4586   90.6888   14.1326 C.3     1  UNL1        0.2374
      2 C          64.1200   91.5863   13.1290 C.3     1  UNL1        0.1909
      3 C          63.8254   91.6331   11.6590 C.3     1  UNL1        0.1783
      4 O          64.7155   92.6702   11.0407 O.3     1  UNL1       -0.3267
      5 C          65.5602   93.2642   12.1287 C.3     1  UNL1        0.2296
      6 O          65.1922   92.5943   13.4193 O.3     1  UNL1       -0.3255
      7 C          66.1297   94.0946   11.0168 C.ar    1  UNL1        0.0409
      8 C          65.6700   95.5097   10.8265 C.ar    1  UNL1        0.0022
      9 C          66.2395   96.3402    9.7146 C.ar    1  UNL1        0.0113
     10 C          67.2686   95.7555    8.7932 C.ar    1  UNL1        0.0585
     11 CL         67.8381   96.5859    7.6814 Cl      1  UNL1       -0.0822
     12 C          67.7283   94.3403    8.9836 C.ar    1  UNL1        0.0226
     13 C          67.1588   93.5099   10.0954 C.ar    1  UNL1        0.0591
     14 CL         67.6184   92.0948   10.2857 Cl      1  UNL1       -0.0824
     15 C          66.5239   94.0319   12.9841 C.3     1  UNL1        0.1682
     16 N          67.3330   93.3194   14.0271 N.ar    1  UNL1       -0.3025
     17 C          67.6256   93.8202   15.4103 C.ar    1  UNL1        0.0982
     18 C          68.4650   92.7914   16.1080 C.ar    1  UNL1        0.1193
     19 N          68.6912   91.6546   15.1558 N.ar    1  UNL1       -0.2223
     20 C          67.9916   91.9809   13.8697 C.ar    1  UNL1        0.1788
     21 O          64.2298   89.5630   14.7552 O.3     1  UNL1       -0.4727
     22 C          63.7021   85.3616   13.2319 C.ar    1  UNL1        0.0481
     23 C          63.2221   86.5224   12.4122 C.ar    1  UNL1        0.0176
     24 C          63.3979   87.9229   12.9199 C.ar    1  UNL1        0.0382
     25 C          64.0539   88.1625   14.2474 C.ar    1  UNL1        0.1388
     26 C          64.5340   87.0017   15.0672 C.ar    1  UNL1        0.0382
     27 C          64.3581   85.6012   14.5594 C.ar    1  UNL1        0.0176
     28 N          63.1746   81.1603   11.7087 N.3     1  UNL1       -0.1560
     29 C          63.8617   82.1861   10.8570 C.3     1  UNL1        0.1168
     30 C          64.0376   83.5865   11.3647 C.3     1  UNL1        0.1099
     31 N          63.5263   83.9611   12.7242 N.pl3   1  UNL1       -0.3045
     32 C          62.8391   82.9353   13.5759 C.3     1  UNL1        0.1099
     33 C          62.6633   81.5349   13.0682 C.3     1  UNL1        0.1168
     34 O          62.6589   79.2998   12.5876 O.2     1  UNL1       -0.1573
     35 S          62.9987   79.7598   11.2010 S.O2    1  UNL1        0.0422
     36 O          63.3386   80.2197    9.8143 O.2     1  UNL1       -0.1573
     37 C          62.8228   78.3593   10.6933 C.3     1  UNL1        0.1459
     38 C          62.0355   77.0834   10.6476 C.3     1  UNL1        0.0270
     39 C          63.3056   77.2096    9.8596 C.3     1  UNL1        0.0270
@<TRIPOS>BOND
     1    34    35    2
     2    35    36    2
     3    35    37    1
     4    37    38    1
     5    38    39    1
     6    35    28    1
     7    28    29    1
     8    29    30    1
     9    30    31    1
    10    31    22    1
    11    22    23   ar
    12    23    24   ar
    13    24    25   ar
    14    25    21    1
    15    21     1    1
    16     2     1    1
    17     2     3    1
    18     3     4    1
    19     4     5    1
    20     5    15    1
    21    15    16    1
    22    16    17   ar
    23    17    18   ar
    24    18    19   ar
    25    19    20   ar
    26     5     7    1
    27     7     8   ar
    28     8     9   ar
    29     9    10   ar
    30    10    11    1
    31    10    12   ar
    32    12    13   ar
    33    13    14    1
    34     5     6    1
    35    25    26   ar
    36    26    27   ar
    37    31    32    1
    38    32    33    1
    39    39    37    1
    40    33    28    1
    41    27    22   ar
    42     6     2    1
    43    20    16   ar
    44    13     7   ar
@<TRIPOS>MOLECULE
*****
 39 44 0 0 0
SMALL
GASTEIGER

@<TRIPOS>ATOM
      1 C          59.0001   88.9285    6.9266 C.3     1  UNL1        0.2374
      2 C          59.8100   88.5758    8.1389 C.3     1  UNL1        0.1909
      3 C          59.6386   89.1539    9.5125 C.3     1  UNL1        0.1783
      4 O          60.6560   88.5185   10.4131 O.3     1  UNL1       -0.3267
      5 C          61.4562   87.5477    9.5961 C.3     1  UNL1        0.2296
      6 O          60.9333   87.5831    8.1907 O.3     1  UNL1       -0.3255
      7 C          62.1779   87.2984   10.8872 C.ar    1  UNL1        0.0409
      8 C          62.2156   85.9171   11.4708 C.ar    1  UNL1        0.0022
      9 C          62.9373   85.6678   12.7620 C.ar    1  UNL1        0.0113
     10 C          63.6213   86.7997   13.4695 C.ar    1  UNL1        0.0585
     11 CL         64.3430   86.5504   14.7606 Cl      1  UNL1       -0.0822
     12 C          63.5837   88.1811   12.8859 C.ar    1  UNL1        0.0226
     13 C          62.8620   88.4304   11.5948 C.ar    1  UNL1        0.0591
     14 CL         62.8244   89.8117   11.0112 Cl      1  UNL1       -0.0824
     15 C          62.4073   86.5248    9.0491 C.3     1  UNL1        0.1682
     16 N          61.9902   85.6490    7.9050 N.ar    1  UNL1       -0.3025
     17 C          62.9106   84.9260    6.9670 C.ar    1  UNL1        0.0982
     18 C          62.0688   84.1725    5.9804 C.ar    1  UNL1        0.1193
     19 N          60.6279   84.4299    6.3086 N.ar    1  UNL1       -0.2223
     20 C          60.5794   85.3424    7.4981 C.ar    1  UNL1        0.1788
     21 O          58.7386   90.3671    6.5918 O.3     1  UNL1       -0.4727
     22 C          60.8976   92.3051    3.1520 C.ar    1  UNL1        0.0481
     23 C          59.4585   92.6355    3.4160 C.ar    1  UNL1        0.0176
     24 C          58.7388   91.9895    4.5626 C.ar    1  UNL1        0.0382
     25 C          59.4582   91.0131    5.4452 C.ar    1  UNL1        0.1388
     26 C          60.8974   90.6827    5.1812 C.ar    1  UNL1        0.0382
     27 C          61.6171   91.3287    4.0346 C.ar    1  UNL1        0.0176
     28 N          63.0566   94.2431   -0.2879 N.3     1  UNL1       -0.1560
     29 C          61.5798   93.9949   -0.3736 C.3     1  UNL1        0.1168
     30 C          60.8602   93.3489    0.7730 C.3     1  UNL1        0.1099
     31 N          61.6173   92.9511    2.0053 N.pl3   1  UNL1       -0.3045
     32 C          63.0941   93.1993    2.0909 C.3     1  UNL1        0.1099
     33 C          63.8138   93.8453    0.9443 C.3     1  UNL1        0.1168
     34 O          65.0335   94.9380   -0.6179 O.2     1  UNL1       -0.1573
     35 S          63.7763   94.8891   -1.4346 S.O2    1  UNL1        0.0422
     36 O          62.5191   94.8401   -2.2513 O.2     1  UNL1       -0.1573
     37 C          64.4960   95.5350   -2.5812 C.3     1  UNL1        0.1459
     38 C          65.0057   95.4814   -3.9909 C.3     1  UNL1        0.0270
     39 C          65.2329   96.7076   -3.1574 C.3     1  UNL1        0.0270
@<TRIPOS>BOND
     1    34    35    2
     2    35    36    2
     3    35    37    1
     4    37    38    1
     5    38    39    1
     6    35    28    1
     7    28    29    1
     8    29    30    1
     9    30    31    1
    10    31    22    1
    11    22    23   ar
    12    23    24   ar
    13    24    25   ar
    14    25    21    1
    15    21     1    1
    16     2     1    1
    17     2     3    1
    18     3     4    1
    19     4     5    1
    20     5    15    1
    21    15    16    1
    22    16    17   ar
    23    17    18   ar
    24    18    19   ar
    25    19    20   ar
    26     5     7    1
    27     7     8   ar
    28     8     9   ar
    29     9    10   ar
    30    10    11    1
    31    10    12   ar
    32    12    13   ar
    33    13    14    1
    34     5     6    1
    35    25    26   ar
    36    26    27   ar
    37    31    32    1
    38    32    33    1
    39    39    37    1
    40    33    28    1
    41    27    22   ar
    42     6     2    1
    43    20    16   ar
    44    13     7   ar
@<TRIPOS>MOLECULE
*****
 39 44 0 0 0
SMALL
GASTEIGER

@<TRIPOS>ATOM
      1 C          58.6657   91.8999    5.0815 C.3     1  UNL1        0.2374
      2 C          59.6386   92.4041    4.0571 C.3     1  UNL1        0.1909
      3 C          61.0412   91.9118    3.8559 C.3     1  UNL1        0.1783
      4 O          61.6492   92.6925    2.7286 O.3     1  UNL1       -0.3267
      5 C          60.6224   93.6674    2.2332 C.3     1  UNL1        0.2296
      6 O          59.3799   93.4891    3.0543 O.3     1  UNL1       -0.3255
      7 C          61.6974   94.0669    1.2663 C.ar    1  UNL1        0.0409
      8 C          62.4130   95.3739    1.4384 C.ar    1  UNL1        0.0022
      9 C          63.4880   95.7734    0.4715 C.ar    1  UNL1        0.0113
     10 C          63.8473   94.8659   -0.6674 C.ar    1  UNL1        0.0585
     11 CL         64.9223   95.2654   -1.6343 Cl      1  UNL1       -0.0822
     12 C          63.1317   93.5588   -0.8396 C.ar    1  UNL1        0.0226
     13 C          62.0568   93.1593    0.1273 C.ar    1  UNL1        0.0591
     14 CL         61.3412   91.8523   -0.0447 Cl      1  UNL1       -0.0824
     15 C          59.8205   94.7258    1.5356 C.3     1  UNL1        0.1682
     16 N          59.0460   94.3855    0.2969 N.ar    1  UNL1       -0.3025
     17 C          58.2812   93.1180    0.0556 C.ar    1  UNL1        0.0982
     18 C          57.6630   93.2021   -1.3084 C.ar    1  UNL1        0.1193
     19 N          58.0457   94.5217   -1.9102 N.ar    1  UNL1       -0.2223
     20 C          58.9005   95.2531   -0.9181 C.ar    1  UNL1        0.1788
     21 O          58.4573   90.4248    5.2558 O.3     1  UNL1       -0.4727
     22 C          60.5205   88.2415    8.6064 C.ar    1  UNL1        0.0481
     23 C          59.7807   87.4715    7.5530 C.ar    1  UNL1        0.0176
     24 C          59.0930   88.1993    6.4360 C.ar    1  UNL1        0.0382
     25 C          59.1450   89.6970    6.3726 C.ar    1  UNL1        0.1388
     26 C          59.8848   90.4670    7.4261 C.ar    1  UNL1        0.0382
     27 C          60.5725   89.7393    8.5430 C.ar    1  UNL1        0.0176
     28 N          62.5837   86.0583   11.9570 N.3     1  UNL1       -0.1560
     29 C          61.8366   85.2888   10.9084 C.3     1  UNL1        0.1168
     30 C          61.1489   86.0165    9.7915 C.3     1  UNL1        0.1099
     31 N          61.2083   87.5138    9.7233 N.pl3   1  UNL1       -0.3045
     32 C          61.9553   88.2833   10.7720 C.3     1  UNL1        0.1099
     33 C          62.6430   87.5556   11.8888 C.3     1  UNL1        0.1168
     34 O          63.6479   86.6422   13.6967 O.2     1  UNL1       -0.1573
     35 S          63.2714   85.3306   13.0740 S.O2    1  UNL1        0.0422
     36 O          62.8950   84.0189   12.4512 O.2     1  UNL1       -0.1573
     37 C          63.9592   84.6029   14.1908 C.3     1  UNL1        0.1459
     38 C          65.2023   84.3041   14.9753 C.3     1  UNL1        0.0270
     39 C          63.9073   83.6414   15.3409 C.3     1  UNL1        0.0270
@<TRIPOS>BOND
     1    34    35    2
     2    35    36    2
     3    35    37    1
     4    37    38    1
     5    38    39    1
     6    35    28    1
     7    28    29    1
     8    29    30    1
     9    30    31    1
    10    31    22    1
    11    22    23   ar
    12    23    24   ar
    13    24    25   ar
    14    25    21    1
    15    21     1    1
    16     2     1    1
    17     2     3    1
    18     3     4    1
    19     4     5    1
    20     5    15    1
    21    15    16    1
    22    16    17   ar
    23    17    18   ar
    24    18    19   ar
    25    19    20   ar
    26     5     7    1
    27     7     8   ar
    28     8     9   ar
    29     9    10   ar
    30    10    11    1
    31    10    12   ar
    32    12    13   ar
    33    13    14    1
    34     5     6    1
    35    25    26   ar
    36    26    27   ar
    37    31    32    1
    38    32    33    1
    39    39    37    1
    40    33    28    1
    41    27    22   ar
    42     6     2    1
    43    20    16   ar
    44    13     7   ar
@<TRIPOS>MOLECULE
*****
 39 44 0 0 0
SMALL
GASTEIGER

@<TRIPOS>ATOM
      1 C          63.0762   90.3412   16.8232 C.3     1  UNL1        0.2374
      2 C          63.8161   90.9600   15.6744 C.3     1  UNL1        0.1909
      3 C          64.6053   92.2349   15.7181 C.3     1  UNL1        0.1783
      4 O          65.1736   92.4754   14.3510 O.3     1  UNL1       -0.3267
      5 C          64.7357   91.3491   13.4623 C.3     1  UNL1        0.2296
      6 O          63.8967   90.4126   14.2802 O.3     1  UNL1       -0.3255
      7 C          65.5173   92.0823   12.4127 C.ar    1  UNL1        0.0409
      8 C          64.8059   92.7179   11.2552 C.ar    1  UNL1        0.0022
      9 C          65.5875   93.4511   10.2055 C.ar    1  UNL1        0.0113
     10 C          67.0803   93.5486   10.3135 C.ar    1  UNL1        0.0585
     11 CL         67.8619   94.2818    9.2640 Cl      1  UNL1       -0.0822
     12 C          67.7918   92.9130   11.4712 C.ar    1  UNL1        0.0226
     13 C          67.0102   92.1798   12.5207 C.ar    1  UNL1        0.0591
     14 CL         67.7216   91.5442   13.6783 Cl      1  UNL1       -0.0824
     15 C          64.4612   90.3761   12.3542 C.3     1  UNL1        0.1682
     16 N          63.0546   89.9382   12.0719 N.ar    1  UNL1       -0.3025
     17 C          61.8703   90.8402   11.8886 C.ar    1  UNL1        0.0982
     18 C          60.6692   89.9808   11.6268 C.ar    1  UNL1        0.1193
     19 N          61.1111   88.5476   11.6482 N.ar    1  UNL1       -0.2223
     20 C          62.5854   88.5212   11.9233 C.ar    1  UNL1        0.1788
     21 O          63.5245   89.0231   17.3812 O.3     1  UNL1       -0.4727
     22 C          63.2789   85.3089   14.8525 C.ar    1  UNL1        0.0481
     23 C          62.5004   85.3982   16.1315 C.ar    1  UNL1        0.0176
     24 C          62.5823   86.6363   16.9745 C.ar    1  UNL1        0.0382
     25 C          63.4427   87.7850   16.5384 C.ar    1  UNL1        0.1388
     26 C          64.2212   87.6956   15.2593 C.ar    1  UNL1        0.0382
     27 C          64.1393   86.4576   14.4164 C.ar    1  UNL1        0.0176
     28 N          63.0334   81.5948   12.3236 N.3     1  UNL1       -0.1560
     29 C          63.8039   82.7853   11.8349 C.3     1  UNL1        0.1168
     30 C          63.8857   84.0233   12.6778 C.3     1  UNL1        0.1099
     31 N          63.1971   84.0708   14.0095 N.pl3   1  UNL1       -0.3045
     32 C          62.4266   82.8803   14.4983 C.3     1  UNL1        0.1099
     33 C          62.3447   81.6423   13.6553 C.3     1  UNL1        0.1168
     34 O          63.4055   81.1407   10.2852 O.2     1  UNL1       -0.1573
     35 S          62.9516   80.3567   11.4806 S.O2    1  UNL1        0.0422
     36 O          62.4976   79.5727   12.6761 O.2     1  UNL1       -0.1573
     37 C          62.8697   79.1187   10.6377 C.3     1  UNL1        0.1459
     38 C          62.7643   77.6265   10.5279 C.3     1  UNL1        0.0270
     39 C          62.8334   78.4667    9.2873 C.3     1  UNL1        0.0270
@<TRIPOS>BOND
     1    34    35    2
     2    35    36    2
     3    35    37    1
     4    37    38    1
     5    38    39    1
     6    35    28    1
     7    28    29    1
     8    29    30    1
     9    30    31    1
    10    31    22    1
    11    22    23   ar
    12    23    24   ar
    13    24    25   ar
    14    25    21    1
    15    21     1    1
    16     2     1    1
    17     2     3    1
    18     3     4    1
    19     4     5    1
    20     5    15    1
    21    15    16    1
    22    16    17   ar
    23    17    18   ar
    24    18    19   ar
    25    19    20   ar
    26     5     7    1
    27     7     8   ar
    28     8     9   ar
    29     9    10   ar
    30    10    11    1
    31    10    12   ar
    32    12    13   ar
    33    13    14    1
    34     5     6    1
    35    25    26   ar
    36    26    27   ar
    37    31    32    1
    38    32    33    1
    39    39    37    1
    40    33    28    1
    41    27    22   ar
    42     6     2    1
    43    20    16   ar
    44    13     7   ar
@<TRIPOS>MOLECULE
*****
 39 44 0 0 0
SMALL
GASTEIGER

@<TRIPOS>ATOM
      1 C          63.4991   91.1077   16.1368 C.3     1  UNL1        0.2374
      2 C          64.1739   91.5835   14.8844 C.3     1  UNL1        0.1909
      3 C          63.8769   91.1155   13.4906 C.3     1  UNL1        0.1783
      4 O          64.7835   91.8536   12.5507 O.3     1  UNL1       -0.3267
      5 C          65.6408   92.7778   13.3638 C.3     1  UNL1        0.2296
      6 O          65.2640   92.6108   14.8061 O.3     1  UNL1       -0.3255
      7 C          66.2222   93.1544   12.0333 C.ar    1  UNL1        0.0409
      8 C          65.5980   94.2539   11.2262 C.ar    1  UNL1        0.0022
      9 C          66.1794   94.6305    9.8957 C.ar    1  UNL1        0.0113
     10 C          67.3849   93.9077    9.3724 C.ar    1  UNL1        0.0585
     11 CL         67.9663   94.2842    8.0419 Cl      1  UNL1       -0.0822
     12 C          68.0093   92.8081   10.1795 C.ar    1  UNL1        0.0226
     13 C          67.4279   92.4315   11.5100 C.ar    1  UNL1        0.0591
     14 CL         68.0521   91.3320   12.3171 Cl      1  UNL1       -0.0824
     15 C          66.6197   93.7807   13.8987 C.3     1  UNL1        0.1682
     16 N          67.6325   93.3667   14.9248 N.ar    1  UNL1       -0.3025
     17 C          67.8479   91.9743   15.4392 C.ar    1  UNL1        0.0982
     18 C          68.9562   92.0195   16.4489 C.ar    1  UNL1        0.1193
     19 N          69.4258   93.4399   16.5585 N.ar    1  UNL1       -0.2223
     20 C          68.6076   94.2725   15.6165 C.ar    1  UNL1        0.1788
     21 O          63.9237   89.8178   16.7738 O.3     1  UNL1       -0.4727
     22 C          63.5340   85.9521   14.5034 C.ar    1  UNL1        0.0481
     23 C          64.0803   87.1709   13.8209 C.ar    1  UNL1        0.0176
     24 C          64.2103   88.4595   14.5776 C.ar    1  UNL1        0.0382
     25 C          63.7938   88.5292   16.0170 C.ar    1  UNL1        0.1388
     26 C          63.2474   87.3103   16.6995 C.ar    1  UNL1        0.0382
     27 C          63.1175   86.0218   15.9427 C.ar    1  UNL1        0.0176
     28 N          63.1442   82.0864   12.2331 N.3     1  UNL1       -0.1560
     29 C          62.9202   83.3935   11.5323 C.3     1  UNL1        0.1168
     30 C          63.0501   84.6821   12.2891 C.3     1  UNL1        0.1099
     31 N          63.4040   84.6634   13.7466 N.pl3   1  UNL1       -0.3045
     32 C          63.6280   83.3563   14.4474 C.3     1  UNL1        0.1099
     33 C          63.4981   82.0677   13.6906 C.3     1  UNL1        0.1168
     34 O          62.4796   80.1286   12.7076 O.2     1  UNL1       -0.1573
     35 S          63.0143   80.7978   11.4763 S.O2    1  UNL1        0.0422
     36 O          63.5489   81.4669   10.2449 O.2     1  UNL1       -0.1573
     37 C          62.8843   79.5092   10.7196 C.3     1  UNL1        0.1459
     38 C          62.8139   78.7692    9.4167 C.3     1  UNL1        0.0270
     39 C          62.7297   78.0172   10.7118 C.3     1  UNL1        0.0270
@<TRIPOS>BOND
     1    34    35    2
     2    35    36    2
     3    35    37    1
     4    37    38    1
     5    38    39    1
     6    35    28    1
     7    28    29    1
     8    29    30    1
     9    30    31    1
    10    31    22    1
    11    22    23   ar
    12    23    24   ar
    13    24    25   ar
    14    25    21    1
    15    21     1    1
    16     2     1    1
    17     2     3    1
    18     3     4    1
    19     4     5    1
    20     5    15    1
    21    15    16    1
    22    16    17   ar
    23    17    18   ar
    24    18    19   ar
    25    19    20   ar
    26     5     7    1
    27     7     8   ar
    28     8     9   ar
    29     9    10   ar
    30    10    11    1
    31    10    12   ar
    32    12    13   ar
    33    13    14    1
    34     5     6    1
    35    25    26   ar
    36    26    27   ar
    37    31    32    1
    38    32    33    1
    39    39    37    1
    40    33    28    1
    41    27    22   ar
    42     6     2    1
    43    20    16   ar
    44    13     7   ar
@<TRIPOS>MOLECULE
*****
 39 44 0 0 0
SMALL
GASTEIGER

@<TRIPOS>ATOM
      1 C          71.1142   76.4374   14.8453 C.3     1  UNL1        0.2374
      2 C          71.5164   75.0260   15.1556 C.3     1  UNL1        0.1909
      3 C          72.7894   74.5986   15.8240 C.3     1  UNL1        0.1783
      4 O          72.7759   73.1027   15.9334 O.3     1  UNL1       -0.3267
      5 C          71.4945   72.6055   15.3326 C.3     1  UNL1        0.2296
      6 O          70.7161   73.7942   14.8519 O.3     1  UNL1       -0.3255
      7 C          72.0285   71.2539   15.7040 C.ar    1  UNL1        0.0409
      8 C          73.0885   70.6088   14.8613 C.ar    1  UNL1        0.0022
      9 C          73.6224   69.2570   15.2326 C.ar    1  UNL1        0.0113
     10 C          73.0964   68.5505   16.4467 C.ar    1  UNL1        0.0585
     11 CL         73.6303   67.1989   16.8181 Cl      1  UNL1       -0.0822
     12 C          72.0363   69.1956   17.2895 C.ar    1  UNL1        0.0226
     13 C          71.5024   70.5473   16.9181 C.ar    1  UNL1        0.0591
     14 CL         70.4424   71.1924   17.7608 Cl      1  UNL1       -0.0824
     15 C          70.3248   71.8257   14.8094 C.3     1  UNL1        0.1682
     16 N          70.3244   71.3346   13.3921 N.ar    1  UNL1       -0.3025
     17 C          70.7661   72.1136   12.1889 C.ar    1  UNL1        0.0982
     18 C          70.5968   71.2387   10.9824 C.ar    1  UNL1        0.1193
     19 N          70.0505   69.9188   11.4399 N.ar    1  UNL1       -0.2223
     20 C          69.8821   69.9781   12.9293 C.ar    1  UNL1        0.1788
     21 O          72.1645   77.4792   14.5972 O.3     1  UNL1       -0.4727
     22 C          72.6465   79.2547   10.4905 C.ar    1  UNL1        0.0481
     23 C          73.0576   80.0405   11.7002 C.ar    1  UNL1        0.0176
     24 C          72.8969   79.4486   13.0692 C.ar    1  UNL1        0.0382
     25 C          72.3252   78.0710   13.2283 C.ar    1  UNL1        0.1388
     26 C          71.9141   77.2852   12.0185 C.ar    1  UNL1        0.0382
     27 C          72.0748   77.8770   10.6496 C.ar    1  UNL1        0.0176
     28 N          73.1286   81.0301    6.3837 N.3     1  UNL1       -0.1560
     29 C          73.5663   81.8043    7.5916 C.3     1  UNL1        0.1168
     30 C          73.4056   81.2125    8.9605 C.3     1  UNL1        0.1099
     31 N          72.8072   79.8465    9.1215 N.pl3   1  UNL1       -0.3045
     32 C          72.3696   79.0723    7.9136 C.3     1  UNL1        0.1099
     33 C          72.5303   79.6641    6.5447 C.3     1  UNL1        0.1168
     34 O          73.3567   82.9944    5.6161 O.2     1  UNL1       -0.1573
     35 S          73.2893   81.6219    5.0148 S.O2    1  UNL1        0.0422
     36 O          73.2220   80.2494    4.4135 O.2     1  UNL1       -0.1573
     37 C          73.4500   82.2137    3.6459 C.3     1  UNL1        0.1459
     38 C          73.6201   82.0372    2.1661 C.3     1  UNL1        0.0270
     39 C          73.5582   83.4154    2.7547 C.3     1  UNL1        0.0270
@<TRIPOS>BOND
     1    34    35    2
     2    35    36    2
     3    35    37    1
     4    37    38    1
     5    38    39    1
     6    35    28    1
     7    28    29    1
     8    29    30    1
     9    30    31    1
    10    31    22    1
    11    22    23   ar
    12    23    24   ar
    13    24    25   ar
    14    25    21    1
    15    21     1    1
    16     2     1    1
    17     2     3    1
    18     3     4    1
    19     4     5    1
    20     5    15    1
    21    15    16    1
    22    16    17   ar
    23    17    18   ar
    24    18    19   ar
    25    19    20   ar
    26     5     7    1
    27     7     8   ar
    28     8     9   ar
    29     9    10   ar
    30    10    11    1
    31    10    12   ar
    32    12    13   ar
    33    13    14    1
    34     5     6    1
    35    25    26   ar
    36    26    27   ar
    37    31    32    1
    38    32    33    1
    39    39    37    1
    40    33    28    1
    41    27    22   ar
    42     6     2    1
    43    20    16   ar
    44    13     7   ar
@<TRIPOS>MOLECULE
*****
 39 44 0 0 0
SMALL
GASTEIGER

@<TRIPOS>ATOM
      1 C          58.6312   91.0616    4.8266 C.3     1  UNL1        0.2374
      2 C          59.6629   91.7720    4.0013 C.3     1  UNL1        0.1909
      3 C          61.1466   91.5634    4.0739 C.3     1  UNL1        0.1783
      4 O          61.7926   92.4781    3.0760 O.3     1  UNL1       -0.3267
      5 C          60.7082   93.2521    2.3867 C.3     1  UNL1        0.2296
      6 O          59.3920   92.8157    2.9586 O.3     1  UNL1       -0.3255
      7 C          61.8476   93.8777    1.6380 C.ar    1  UNL1        0.0409
      8 C          62.8575   93.0099    0.9474 C.ar    1  UNL1        0.0022
      9 C          63.9970   93.6355    0.1987 C.ar    1  UNL1        0.0113
     10 C          64.1263   95.1287    0.1406 C.ar    1  UNL1        0.0585
     11 CL         65.2656   95.7543   -0.6081 Cl      1  UNL1       -0.0822
     12 C          63.1162   95.9965    0.8312 C.ar    1  UNL1        0.0226
     13 C          61.9769   95.3710    1.5799 C.ar    1  UNL1        0.0591
     14 CL         60.9669   96.2387    2.2704 Cl      1  UNL1       -0.0824
     15 C          59.8620   94.1569    1.5409 C.3     1  UNL1        0.1682
     16 N          59.2104   93.6284    0.2974 N.ar    1  UNL1       -0.3025
     17 C          58.1702   94.3341   -0.5209 C.ar    1  UNL1        0.0982
     18 C          57.8015   93.4434   -1.6701 C.ar    1  UNL1        0.1193
     19 N          58.6141   92.1871   -1.5620 N.ar    1  UNL1       -0.2223
     20 C          59.4848   92.3015   -0.3460 C.ar    1  UNL1        0.1788
     21 O          58.6838   91.1407    6.3236 O.3     1  UNL1       -0.4727
     22 C          60.6122   87.8312    8.6853 C.ar    1  UNL1        0.0481
     23 C          60.8188   89.2605    9.0906 C.ar    1  UNL1        0.0176
     24 C          60.1760   90.3638    8.3034 C.ar    1  UNL1        0.0382
     25 C          59.3266   90.0376    7.1108 C.ar    1  UNL1        0.1388
     26 C          59.1200   88.6082    6.7056 C.ar    1  UNL1        0.0382
     27 C          59.7628   87.5050    7.4928 C.ar    1  UNL1        0.0176
     28 N          62.5406   84.5216   11.0471 N.3     1  UNL1       -0.1560
     29 C          61.6374   85.5039   11.7321 C.3     1  UNL1        0.1168
     30 C          60.9946   86.6071   10.9449 C.3     1  UNL1        0.1099
     31 N          61.2550   86.7279    9.4726 N.pl3   1  UNL1       -0.3045
     32 C          62.1582   85.7456    8.7876 C.3     1  UNL1        0.1099
     33 C          62.8010   84.6425    9.5749 C.3     1  UNL1        0.1168
     34 O          63.6333   82.7703   10.5587 O.2     1  UNL1       -0.1573
     35 S          63.1834   83.4184   11.8344 S.O2    1  UNL1        0.0422
     36 O          62.7335   84.0665   13.1101 O.2     1  UNL1       -0.1573
     37 C          63.8262   82.3152   12.6216 C.3     1  UNL1        0.1459
     38 C          63.7056   81.0853   13.4717 C.3     1  UNL1        0.0270
     39 C          65.0602   81.6342   13.1348 C.3     1  UNL1        0.0270
@<TRIPOS>BOND
     1    34    35    2
     2    35    36    2
     3    35    37    1
     4    37    38    1
     5    38    39    1
     6    35    28    1
     7    28    29    1
     8    29    30    1
     9    30    31    1
    10    31    22    1
    11    22    23   ar
    12    23    24   ar
    13    24    25   ar
    14    25    21    1
    15    21     1    1
    16     2     1    1
    17     2     3    1
    18     3     4    1
    19     4     5    1
    20     5    15    1
    21    15    16    1
    22    16    17   ar
    23    17    18   ar
    24    18    19   ar
    25    19    20   ar
    26     5     7    1
    27     7     8   ar
    28     8     9   ar
    29     9    10   ar
    30    10    11    1
    31    10    12   ar
    32    12    13   ar
    33    13    14    1
    34     5     6    1
    35    25    26   ar
    36    26    27   ar
    37    31    32    1
    38    32    33    1
    39    39    37    1
    40    33    28    1
    41    27    22   ar
    42     6     2    1
    43    20    16   ar
    44    13     7   ar
