@<TRIPOS>MOLECULE
*****
 41 45 0 0 0
SMALL
GASTEIGER

@<TRIPOS>ATOM
      1 C          64.1109   85.8938   15.3329 C.ar    1  UNL1        0.1383
      2 C          63.4998   85.0729   16.4295 C.ar    1  UNL1        0.0369
      3 C          62.7674   85.7468   17.5518 C.ar    1  UNL1        0.0028
      4 C          62.6462   87.2417   17.5773 C.ar    1  UNL1       -0.0041
      5 C          63.2573   88.0627   16.4807 C.ar    1  UNL1       -0.0186
      6 C          63.9897   87.3886   15.3585 C.ar    1  UNL1        0.0326
      7 O          64.8433   85.2198   14.2107 O.3     1  UNL1       -0.4751
      8 C          64.6253   83.7601   13.9426 C.3     1  UNL1        0.2118
      9 C          63.4367   83.3135   13.1441 C.3     1  UNL1        0.0960
     10 C          64.6178   82.5352   10.2031 C.3     1  UNL1        0.0738
     11 C          63.6455   83.6383   10.4990 C.ar    1  UNL1        0.1387
     12 O          63.0453   84.5774    9.4951 O.2     1  UNL1       -0.4392
     13 C          62.1314   85.5156   10.2265 C.ar    1  UNL1        0.2290
     14 N          62.1669   85.1563   11.6823 N.ar    1  UNL1       -0.2129
     15 C          63.1026   83.9961   11.8508 C.ar    1  UNL1        0.0960
     16 C          61.3240   86.6193    9.6100 C.ar    1  UNL1        0.0544
     17 C          60.5605   86.3722    8.3428 C.ar    1  UNL1        0.0047
     18 C          59.7530   87.4759    7.7264 C.ar    1  UNL1        0.0010
     19 C          59.7091   88.8266    8.3773 C.ar    1  UNL1        0.0114
     20 C          60.4726   89.0736    9.6446 C.ar    1  UNL1        0.0578
     21 CL         60.4286   90.4243   10.2955 Cl      1  UNL1       -0.0822
     22 C          61.2800   87.9700   10.2609 C.ar    1  UNL1        0.0160
     23 C          63.1361   89.5574   16.5062 C.3     1  UNL1        0.0376
     24 C          63.7289   90.3771   15.3987 C.3     1  UNL1        0.1052
     25 C          63.6075   90.3859   13.9037 C.2     1  UNL1        0.2315
     26 O          62.8427   89.5787   12.8969 O.2     1  UNL1       -0.2745
     27 N          64.5675   91.5363   13.8324 N.am    1  UNL1       -0.2546
     28 C          64.6890   91.5275   15.3274 C.3     1  UNL1        0.1249
     29 C          65.1604   92.3559   12.7248 C.ar    1  UNL1        0.0541
     30 C          66.0388   93.5283   13.0470 C.ar    1  UNL1        0.0146
     31 C          66.6317   94.3480   11.9395 C.ar    1  UNL1       -0.0030
     32 C          66.3462   93.9952   10.5097 C.ar    1  UNL1       -0.0227
     33 C          65.4677   92.8228   10.1876 C.ar    1  UNL1       -0.0030
     34 C          64.8749   92.0032   11.2952 C.ar    1  UNL1        0.0146
     35 C          66.9391   94.8148    9.4022 C.3     1  UNL1        0.0189
     36 C          67.8326   93.6683    9.0321 C.3     1  UNL1        0.0044
     37 C          66.0455   95.9613    9.7723 C.3     1  UNL1        0.0044
     38 C          67.5320   95.6344    8.2947 C.3     1  UNL1        0.0044
     39 C          65.4537   92.3346   16.3342 C.2     1  UNL1        0.0692
     40 O          64.7840   92.7866   17.5980 O.co2   1  UNL1       -0.5475
     41 O          66.8882   92.6899   16.0771 O.co2   1  UNL1       -0.5475
@<TRIPOS>UNITY_ATOM_ATTR
40 1
charge -1
@<TRIPOS>BOND
     1    10    11    1
     2    11    12   ar
     3    12    13   ar
     4    13    16    1
     5    16    17   ar
     6    17    18   ar
     7    18    19   ar
     8    19    20   ar
     9    20    21    1
    10    20    22   ar
    11    13    14   ar
    12    14    15   ar
    13    15     9    1
    14     9     8    1
    15     8     7    1
    16     7     1    1
    17     1     2   ar
    18     2     3   ar
    19     3     4   ar
    20     4     5   ar
    21     5    23    1
    22    24    23    1
    23    24    25    1
    24    25    26    2
    25    25    27   am
    26    27    29    1
    27    29    30   ar
    28    30    31   ar
    29    31    32   ar
    30    32    35    1
    31    35    36    1
    32    35    37    1
    33    35    38    1
    34    32    33   ar
    35    33    34   ar
    36    27    28    1
    37    28    39    1
    38    39    40   ar
    39    39    41   ar
    40     5     6   ar
    41    15    11   ar
    42     6     1   ar
    43    22    16   ar
    44    28    24    1
    45    34    29   ar
@<TRIPOS>MOLECULE
*****
 41 45 0 0 0
SMALL
GASTEIGER

@<TRIPOS>ATOM
      1 C          61.2115   91.3037    4.4494 C.ar    1  UNL1        0.1383
      2 C          60.3430   92.2341    3.6557 C.ar    1  UNL1        0.0369
      3 C          58.8778   92.3359    3.9608 C.ar    1  UNL1        0.0028
      4 C          58.2813   91.5072    5.0595 C.ar    1  UNL1       -0.0041
      5 C          59.1497   90.5767    5.8532 C.ar    1  UNL1       -0.0186
      6 C          60.6149   90.4750    5.5481 C.ar    1  UNL1        0.0326
      7 O          62.6766   91.2019    4.1443 O.3     1  UNL1       -0.4751
      8 C          63.1620   91.3632    2.7342 C.3     1  UNL1        0.2118
      9 C          63.4891   92.7281    2.2051 C.3     1  UNL1        0.0960
     10 C          64.9885   94.6552    0.0399 C.3     1  UNL1        0.0738
     11 C          63.6191   94.0612   -0.1082 C.ar    1  UNL1        0.1387
     12 O          62.6984   94.2487   -1.2774 O.2     1  UNL1       -0.4392
     13 C          61.4403   93.4788   -1.0049 C.ar    1  UNL1        0.2290
     14 N          61.5833   92.8154    0.3328 N.ar    1  UNL1       -0.2129
     15 C          62.9299   93.1754    0.8871 C.ar    1  UNL1        0.0960
     16 C          60.2483   93.3881   -1.9111 C.ar    1  UNL1        0.0544
     17 C          60.3158   93.9550   -3.2981 C.ar    1  UNL1        0.0047
     18 C          59.1239   93.8644   -4.2042 C.ar    1  UNL1        0.0010
     19 C          57.8644   93.2068   -3.7232 C.ar    1  UNL1        0.0114
     20 C          57.7969   92.6398   -2.3361 C.ar    1  UNL1        0.0578
     21 CL         56.5374   91.9822   -1.8552 Cl      1  UNL1       -0.0822
     22 C          58.9888   92.7305   -1.4301 C.ar    1  UNL1        0.0160
     23 C          58.5531   89.7481    6.9520 C.3     1  UNL1        0.0376
     24 C          59.4041   88.7592    7.6922 C.3     1  UNL1        0.1052
     25 C          59.6586   87.2852    7.5799 C.2     1  UNL1        0.2315
     26 O          59.1674   86.1895    6.6810 O.2     1  UNL1       -0.2745
     27 N          60.6078   87.3607    8.7390 N.am    1  UNL1       -0.2546
     28 C          60.3533   88.8347    8.8513 C.3     1  UNL1        0.1249
     29 C          61.4588   86.3719    9.4792 C.ar    1  UNL1        0.0541
     30 C          61.3155   86.2230   10.9649 C.ar    1  UNL1        0.0146
     31 C          62.1665   85.2342   11.7051 C.ar    1  UNL1       -0.0030
     32 C          63.1608   84.3942   10.9596 C.ar    1  UNL1       -0.0227
     33 C          63.3041   84.5430    9.4739 C.ar    1  UNL1       -0.0030
     34 C          62.4530   85.5319    8.7338 C.ar    1  UNL1        0.0146
     35 C          64.0118   83.4053   11.6998 C.3     1  UNL1        0.0189
     36 C          64.2242   82.6369   10.4292 C.3     1  UNL1        0.0044
     37 C          63.7995   84.1737   12.9704 C.3     1  UNL1        0.0044
     38 C          64.8629   82.4165   12.4400 C.3     1  UNL1        0.0044
     39 C          60.8445   89.9304    9.7502 C.2     1  UNL1        0.0692
     40 O          62.3175   90.1592    9.9180 O.co2   1  UNL1       -0.5475
     41 O          59.8628   90.7973   10.4815 O.co2   1  UNL1       -0.5475
@<TRIPOS>UNITY_ATOM_ATTR
40 1
charge -1
@<TRIPOS>BOND
     1    10    11    1
     2    11    12   ar
     3    12    13   ar
     4    13    16    1
     5    16    17   ar
     6    17    18   ar
     7    18    19   ar
     8    19    20   ar
     9    20    21    1
    10    20    22   ar
    11    13    14   ar
    12    14    15   ar
    13    15     9    1
    14     9     8    1
    15     8     7    1
    16     7     1    1
    17     1     2   ar
    18     2     3   ar
    19     3     4   ar
    20     4     5   ar
    21     5    23    1
    22    24    23    1
    23    24    25    1
    24    25    26    2
    25    25    27   am
    26    27    29    1
    27    29    30   ar
    28    30    31   ar
    29    31    32   ar
    30    32    35    1
    31    35    36    1
    32    35    37    1
    33    35    38    1
    34    32    33   ar
    35    33    34   ar
    36    27    28    1
    37    28    39    1
    38    39    40   ar
    39    39    41   ar
    40     5     6   ar
    41    15    11   ar
    42     6     1   ar
    43    22    16   ar
    44    28    24    1
    45    34    29   ar
