@<TRIPOS>MOLECULE
*****
 34 37 0 0 0
SMALL
GASTEIGER

@<TRIPOS>ATOM
      1 C          63.5749   90.1693   12.8243 C.ar    1  UNL1        0.1474
      2 C          64.1510   89.1003   13.7049 C.ar    1  UNL1        0.0390
      3 C          63.8613   87.6566   13.4192 C.ar    1  UNL1        0.0205
      4 C          62.9957   87.2818   12.2529 C.ar    1  UNL1        0.0662
      5 C          62.4196   88.3508   11.3724 C.ar    1  UNL1        0.0767
      6 C          62.7093   89.7945   11.6580 C.ar    1  UNL1        0.0438
      7 C          61.5539   87.9760   10.2061 C.ar    1  UNL1        0.2820
      8 O          60.9779   89.0449    9.3255 O.2     1  UNL1       -0.2651
      9 N          61.2643   86.5322    9.9204 N.ar    1  UNL1       -0.1873
     10 C          61.8403   85.4632   10.8010 C.ar    1  UNL1        0.1819
     11 N          62.7060   85.8380   11.9673 N.ar    1  UNL1       -0.3057
     12 O          63.8646   91.6131   13.1099 O.3     1  UNL1       -0.4360
     13 C          67.0892   92.8221   15.0824 C.ar    1  UNL1        0.1487
     14 C          66.6057   92.7303   16.4993 C.ar    1  UNL1        0.0577
     15 C          65.2085   92.2662   16.7865 C.ar    1  UNL1        0.1052
     16 N          64.2948   91.8938   15.6567 N.ar    1  UNL1       -0.2097
     17 C          64.7782   91.9855   14.2397 C.ar    1  UNL1        0.2365
     18 C          66.1755   92.4497   13.9526 C.ar    1  UNL1        0.1586
     19 C          66.6590   92.5414   12.5356 C.3     1  UNL1        0.4257
     20 F          67.1424   92.6331   11.1186 F       1  UNL1       -0.1656
     21 F          67.6023   91.4019   12.7837 F       1  UNL1       -0.1656
     22 F          65.7156   93.6809   12.2875 F       1  UNL1       -0.1656
     23 C          69.2747   93.9941   15.8570 C.3     1  UNL1        0.2525
     24 O          68.4863   93.2862   14.7952 O.3     1  UNL1       -0.4713
     25 C          63.2821   84.7690   12.8479 C.3     1  UNL1        0.1387
     26 C          63.1234   83.3245   12.4758 C.ar    1  UNL1        0.0555
     27 C          63.7099   82.8114   11.1941 C.ar    1  UNL1        0.1424
     28 F          64.4551   83.7427   10.2845 F       1  UNL1       -0.2043
     29 C          63.5512   81.3670   10.8221 C.ar    1  UNL1        0.0591
     30 C          62.8060   80.4357   11.7317 C.ar    1  UNL1        0.1446
     31 F          62.6473   78.9912   11.3596 F       1  UNL1       -0.2040
     32 C          62.2195   80.9488   13.0133 C.ar    1  UNL1        0.0591
     33 C          62.3782   82.3932   13.3854 C.ar    1  UNL1        0.1424
     34 F          61.7916   82.9064   14.6671 F       1  UNL1       -0.2043
@<TRIPOS>BOND
     1    23    24    1
     2    24    13    1
     3    13    14   ar
     4    14    15   ar
     5    15    16   ar
     6    16    17   ar
     7    17    12    1
     8    12     1    1
     9     1     2   ar
    10     2     3   ar
    11     3     4   ar
    12     4     5   ar
    13     5     6   ar
    14     5     7   ar
    15     7     8    2
    16     7     9   ar
    17     9    10   ar
    18    10    11   ar
    19    11    25    1
    20    25    26    1
    21    26    27   ar
    22    27    28    1
    23    27    29   ar
    24    29    30   ar
    25    30    31    1
    26    30    32   ar
    27    32    33   ar
    28    33    34    1
    29    17    18   ar
    30    18    19    1
    31    19    20    1
    32    19    21    1
    33    19    22    1
    34    18    13   ar
    35     6     1   ar
    36    33    26   ar
    37    11     4   ar
@<TRIPOS>MOLECULE
*****
 34 37 0 0 0
SMALL
GASTEIGER

@<TRIPOS>ATOM
      1 C          63.2557   90.0374   12.4439 C.ar    1  UNL1        0.1474
      2 C          63.8535   89.0111   13.3599 C.ar    1  UNL1        0.0390
      3 C          63.5896   87.5531   13.1266 C.ar    1  UNL1        0.0205
      4 C          62.7279   87.1214   11.9772 C.ar    1  UNL1        0.0662
      5 C          62.1300   88.1478   11.0612 C.ar    1  UNL1        0.0767
      6 C          62.3939   89.6058   11.2946 C.ar    1  UNL1        0.0438
      7 C          61.2682   87.7161    9.9118 C.ar    1  UNL1        0.2820
      8 O          60.6704   88.7425    8.9958 O.2     1  UNL1       -0.2651
      9 N          61.0043   86.2581    9.6785 N.ar    1  UNL1       -0.1873
     10 C          61.6022   85.2317   10.5945 C.ar    1  UNL1        0.1819
     11 N          62.4640   85.6633   11.7439 N.ar    1  UNL1       -0.3057
     12 O          63.5196   91.4955   12.6773 O.3     1  UNL1       -0.4360
     13 C          67.2621   92.7140   13.1860 C.ar    1  UNL1        0.1487
     14 C          67.5874   93.2130   11.8093 C.ar    1  UNL1        0.0577
     15 C          66.5567   93.1395   10.7220 C.ar    1  UNL1        0.1052
     16 N          65.2007   92.5670   11.0113 N.ar    1  UNL1       -0.2097
     17 C          64.8755   92.0680   12.3879 C.ar    1  UNL1        0.2365
     18 C          65.9062   92.1415   13.4753 C.ar    1  UNL1        0.1586
     19 C          65.5810   91.6425   14.8520 C.3     1  UNL1        0.4257
     20 F          65.2557   91.1435   16.2286 F       1  UNL1       -0.1656
     21 F          65.0699   93.0027   15.2243 F       1  UNL1       -0.1656
     22 F          66.0920   90.2822   14.4796 F       1  UNL1       -0.1656
     23 C          68.1576   93.8048   15.3673 C.3     1  UNL1        0.2525
     24 O          68.2928   92.7874   14.2733 O.3     1  UNL1       -0.4713
     25 C          63.0618   84.6370   12.6599 C.3     1  UNL1        0.1387
     26 C          62.9726   83.1801   12.3139 C.ar    1  UNL1        0.0555
     27 C          63.5271   82.6832   11.0117 C.ar    1  UNL1        0.1424
     28 F          64.1708   83.6431   10.0556 F       1  UNL1       -0.2043
     29 C          63.4379   81.2264   10.6658 C.ar    1  UNL1        0.0591
     30 C          62.7943   80.2665   11.6220 C.ar    1  UNL1        0.1446
     31 F          62.7051   78.8096   11.2760 F       1  UNL1       -0.2040
     32 C          62.2398   80.7634   12.9241 C.ar    1  UNL1        0.0591
     33 C          62.3290   82.2202   13.2701 C.ar    1  UNL1        0.1424
     34 F          61.7745   82.7172   14.5723 F       1  UNL1       -0.2043
@<TRIPOS>BOND
     1    23    24    1
     2    24    13    1
     3    13    14   ar
     4    14    15   ar
     5    15    16   ar
     6    16    17   ar
     7    17    12    1
     8    12     1    1
     9     1     2   ar
    10     2     3   ar
    11     3     4   ar
    12     4     5   ar
    13     5     6   ar
    14     5     7   ar
    15     7     8    2
    16     7     9   ar
    17     9    10   ar
    18    10    11   ar
    19    11    25    1
    20    25    26    1
    21    26    27   ar
    22    27    28    1
    23    27    29   ar
    24    29    30   ar
    25    30    31    1
    26    30    32   ar
    27    32    33   ar
    28    33    34    1
    29    17    18   ar
    30    18    19    1
    31    19    20    1
    32    19    21    1
    33    19    22    1
    34    18    13   ar
    35     6     1   ar
    36    33    26   ar
    37    11     4   ar
@<TRIPOS>MOLECULE
*****
 34 37 0 0 0
SMALL
GASTEIGER

@<TRIPOS>ATOM
      1 C          63.3707   89.6568   13.4219 C.ar    1  UNL1        0.1474
      2 C          64.0381   88.5904   14.2388 C.ar    1  UNL1        0.0390
      3 C          64.0005   87.1622   13.7822 C.ar    1  UNL1        0.0205
      4 C          63.2954   86.8003   12.5086 C.ar    1  UNL1        0.0662
      5 C          62.6279   87.8666   11.6918 C.ar    1  UNL1        0.0767
      6 C          62.6656   89.2949   12.1484 C.ar    1  UNL1        0.0438
      7 C          61.9228   87.5047   10.4182 C.ar    1  UNL1        0.2820
      8 O          61.2554   88.5711    9.6013 O.2     1  UNL1       -0.2651
      9 N          61.8852   86.0764    9.9616 N.ar    1  UNL1       -0.1873
     10 C          62.5526   85.0100   10.7785 C.ar    1  UNL1        0.1819
     11 N          63.2577   85.3719   12.0520 N.ar    1  UNL1       -0.3057
     12 O          63.4083   91.0852   13.8785 O.3     1  UNL1       -0.4360
     13 C          66.6060   93.0850   12.6434 C.ar    1  UNL1        0.1487
     14 C          67.3114   93.3238   13.9455 C.ar    1  UNL1        0.0577
     15 C          66.7158   92.8165   15.2252 C.ar    1  UNL1        0.1052
     16 N          65.4147   92.0702   15.2029 N.ar    1  UNL1       -0.2097
     17 C          64.7093   91.8314   13.9009 C.ar    1  UNL1        0.2365
     18 C          65.3050   92.3388   12.6211 C.ar    1  UNL1        0.1586
     19 C          64.5996   92.1000   11.3190 C.3     1  UNL1        0.4257
     20 F          63.8942   91.8612   10.0169 F       1  UNL1       -0.1656
     21 F          65.9080   91.7495   10.6745 F       1  UNL1       -0.1656
     22 F          63.2913   92.4505   11.9635 F       1  UNL1       -0.1656
     23 C          66.7965   94.9336   10.8278 C.3     1  UNL1        0.2525
     24 O          67.2016   93.5924   11.3637 O.3     1  UNL1       -0.4713
     25 C          63.9252   84.3055   12.8689 C.3     1  UNL1        0.1387
     26 C          63.2476   82.9829   13.0732 C.ar    1  UNL1        0.0555
     27 C          62.3081   82.7917   14.2267 C.ar    1  UNL1        0.1424
     28 F          62.0461   83.9231   15.1761 F       1  UNL1       -0.2043
     29 C          61.6307   81.4691   14.4309 C.ar    1  UNL1        0.0591
     30 C          61.8927   80.3377   13.4815 C.ar    1  UNL1        0.1446
     31 F          61.2151   79.0151   13.6857 F       1  UNL1       -0.2040
     32 C          62.8322   80.5289   12.3279 C.ar    1  UNL1        0.0591
     33 C          63.5096   81.8515   12.1238 C.ar    1  UNL1        0.1424
     34 F          64.4492   82.0428   10.9702 F       1  UNL1       -0.2043
@<TRIPOS>BOND
     1    23    24    1
     2    24    13    1
     3    13    14   ar
     4    14    15   ar
     5    15    16   ar
     6    16    17   ar
     7    17    12    1
     8    12     1    1
     9     1     2   ar
    10     2     3   ar
    11     3     4   ar
    12     4     5   ar
    13     5     6   ar
    14     5     7   ar
    15     7     8    2
    16     7     9   ar
    17     9    10   ar
    18    10    11   ar
    19    11    25    1
    20    25    26    1
    21    26    27   ar
    22    27    28    1
    23    27    29   ar
    24    29    30   ar
    25    30    31    1
    26    30    32   ar
    27    32    33   ar
    28    33    34    1
    29    17    18   ar
    30    18    19    1
    31    19    20    1
    32    19    21    1
    33    19    22    1
    34    18    13   ar
    35     6     1   ar
    36    33    26   ar
    37    11     4   ar
@<TRIPOS>MOLECULE
*****
 34 37 0 0 0
SMALL
GASTEIGER

@<TRIPOS>ATOM
      1 C          62.9595   89.6041   12.7271 C.ar    1  UNL1        0.1474
      2 C          63.8082   88.5731   13.4102 C.ar    1  UNL1        0.0390
      3 C          63.7665   87.1450   12.9533 C.ar    1  UNL1        0.0205
      4 C          62.8760   86.7480   11.8133 C.ar    1  UNL1        0.0662
      5 C          62.0274   87.7790   11.1302 C.ar    1  UNL1        0.0767
      6 C          62.0691   89.2071   11.5871 C.ar    1  UNL1        0.0438
      7 C          61.1369   87.3820    9.9903 C.ar    1  UNL1        0.2820
      8 O          60.2883   88.4130    9.3072 O.2     1  UNL1       -0.2651
      9 N          61.0952   85.9539    9.5334 N.ar    1  UNL1       -0.1873
     10 C          61.9439   84.9228   10.2165 C.ar    1  UNL1        0.1819
     11 N          62.8343   85.3198   11.3564 N.ar    1  UNL1       -0.3057
     12 O          63.0012   91.0323   13.1840 O.3     1  UNL1       -0.4360
     13 C          66.3121   92.5744   14.7363 C.ar    1  UNL1        0.1487
     14 C          66.9448   93.1743   13.5157 C.ar    1  UNL1        0.0577
     15 C          66.2630   93.0602   12.1846 C.ar    1  UNL1        0.1052
     16 N          64.9484   92.3462   12.0739 N.ar    1  UNL1       -0.2097
     17 C          64.3157   91.7463   13.2945 C.ar    1  UNL1        0.2365
     18 C          64.9976   91.8604   14.6258 C.ar    1  UNL1        0.1586
     19 C          64.3649   91.2606   15.8464 C.3     1  UNL1        0.4257
     20 F          63.7322   90.6607   17.0669 F       1  UNL1       -0.1656
     21 F          64.8043   89.8964   15.4037 F       1  UNL1       -0.1656
     22 F          63.9255   92.6247   16.2890 F       1  UNL1       -0.1656
     23 C          68.3164   93.3882   16.1753 C.3     1  UNL1        0.2525
     24 O          66.9939   92.6885   16.0675 O.3     1  UNL1       -0.4713
     25 C          63.6830   84.2888   12.0395 C.3     1  UNL1        0.1387
     26 C          63.0689   83.0033   12.5092 C.ar    1  UNL1        0.0555
     27 C          62.2866   82.9693   13.7885 C.ar    1  UNL1        0.1424
     28 F          62.1183   84.2208   14.5982 F       1  UNL1       -0.2043
     29 C          61.6725   81.6839   14.2582 C.ar    1  UNL1        0.0591
     30 C          61.8408   80.4325   13.4485 C.ar    1  UNL1        0.1446
     31 F          61.2267   79.1470   13.9182 F       1  UNL1       -0.2040
     32 C          62.6232   80.4665   12.1692 C.ar    1  UNL1        0.0591
     33 C          63.2372   81.7519   11.6995 C.ar    1  UNL1        0.1424
     34 F          64.0197   81.7859   10.4201 F       1  UNL1       -0.2043
@<TRIPOS>BOND
     1    23    24    1
     2    24    13    1
     3    13    14   ar
     4    14    15   ar
     5    15    16   ar
     6    16    17   ar
     7    17    12    1
     8    12     1    1
     9     1     2   ar
    10     2     3   ar
    11     3     4   ar
    12     4     5   ar
    13     5     6   ar
    14     5     7   ar
    15     7     8    2
    16     7     9   ar
    17     9    10   ar
    18    10    11   ar
    19    11    25    1
    20    25    26    1
    21    26    27   ar
    22    27    28    1
    23    27    29   ar
    24    29    30   ar
    25    30    31    1
    26    30    32   ar
    27    32    33   ar
    28    33    34    1
    29    17    18   ar
    30    18    19    1
    31    19    20    1
    32    19    21    1
    33    19    22    1
    34    18    13   ar
    35     6     1   ar
    36    33    26   ar
    37    11     4   ar
@<TRIPOS>MOLECULE
*****
 34 37 0 0 0
SMALL
GASTEIGER

@<TRIPOS>ATOM
      1 C          63.9717   85.6316   13.6456 C.ar    1  UNL1        0.1474
      2 C          64.3506   86.8075   14.4961 C.ar    1  UNL1        0.0390
      3 C          63.9748   88.1950   14.0677 C.ar    1  UNL1        0.0205
      4 C          63.2201   88.4066   12.7888 C.ar    1  UNL1        0.0662
      5 C          62.8412   87.2306   11.9382 C.ar    1  UNL1        0.0767
      6 C          63.2170   85.8431   12.3666 C.ar    1  UNL1        0.0438
      7 C          62.0865   87.4422   10.6593 C.ar    1  UNL1        0.2820
      8 O          61.7076   86.2662    9.8087 O.2     1  UNL1       -0.2651
      9 N          61.7107   88.8297   10.2309 N.ar    1  UNL1       -0.1873
     10 C          62.0897   90.0057   11.0814 C.ar    1  UNL1        0.1819
     11 N          62.8444   89.7942   12.3604 N.ar    1  UNL1       -0.3057
     12 O          64.3474   84.2440   14.0739 O.3     1  UNL1       -0.4360
     13 C          62.5247   81.2716   12.1786 C.ar    1  UNL1        0.1487
     14 C          61.5720   80.8019   13.2377 C.ar    1  UNL1        0.0577
     15 C          61.5445   81.4795   14.5756 C.ar    1  UNL1        0.1052
     16 N          62.4696   82.6269   14.8544 N.ar    1  UNL1       -0.2097
     17 C          63.4223   83.0966   13.7952 C.ar    1  UNL1        0.2365
     18 C          63.4498   82.4189   12.4573 C.ar    1  UNL1        0.1586
     19 C          64.4025   82.8886   11.3981 C.3     1  UNL1        0.4257
     20 F          65.3551   83.3583   10.3389 F       1  UNL1       -0.1656
     21 F          63.2685   83.5479   10.6705 F       1  UNL1       -0.1656
     22 F          65.5364   82.2293   12.1257 F       1  UNL1       -0.1656
     23 C          62.7614   79.1110   10.7552 C.3     1  UNL1        0.2525
     24 O          62.5522   80.5939   10.8407 O.3     1  UNL1       -0.4713
     25 C          63.2233   90.9702   13.2109 C.3     1  UNL1        0.1387
     26 C          64.6685   91.3254   13.3986 C.ar    1  UNL1        0.0555
     27 C          65.3050   91.1893   14.7500 C.ar    1  UNL1        0.1424
     28 F          64.4962   90.6979   15.9138 F       1  UNL1       -0.2043
     29 C          66.7501   91.5445   14.9376 C.ar    1  UNL1        0.0591
     30 C          67.5589   92.0359   13.7738 C.ar    1  UNL1        0.1446
     31 F          69.0041   92.3912   13.9614 F       1  UNL1       -0.2040
     32 C          66.9225   92.1721   12.4224 C.ar    1  UNL1        0.0591
     33 C          65.4773   91.8168   12.2348 C.ar    1  UNL1        0.1424
     34 F          64.8408   91.9529   10.8833 F       1  UNL1       -0.2043
@<TRIPOS>BOND
     1    23    24    1
     2    24    13    1
     3    13    14   ar
     4    14    15   ar
     5    15    16   ar
     6    16    17   ar
     7    17    12    1
     8    12     1    1
     9     1     2   ar
    10     2     3   ar
    11     3     4   ar
    12     4     5   ar
    13     5     6   ar
    14     5     7   ar
    15     7     8    2
    16     7     9   ar
    17     9    10   ar
    18    10    11   ar
    19    11    25    1
    20    25    26    1
    21    26    27   ar
    22    27    28    1
    23    27    29   ar
    24    29    30   ar
    25    30    31    1
    26    30    32   ar
    27    32    33   ar
    28    33    34    1
    29    17    18   ar
    30    18    19    1
    31    19    20    1
    32    19    21    1
    33    19    22    1
    34    18    13   ar
    35     6     1   ar
    36    33    26   ar
    37    11     4   ar
@<TRIPOS>MOLECULE
*****
 34 37 0 0 0
SMALL
GASTEIGER

@<TRIPOS>ATOM
      1 C          63.3798   86.0274   13.0999 C.ar    1  UNL1        0.1474
      2 C          63.9027   87.0492   14.0656 C.ar    1  UNL1        0.0390
      3 C          63.8056   88.5097   13.7378 C.ar    1  UNL1        0.0205
      4 C          63.1855   88.9484   12.4444 C.ar    1  UNL1        0.0662
      5 C          62.6626   87.9267   11.4787 C.ar    1  UNL1        0.0767
      6 C          62.7597   86.4662   11.8065 C.ar    1  UNL1        0.0438
      7 C          62.0425   88.3654   10.1852 C.ar    1  UNL1        0.2820
      8 O          61.5196   87.3437    9.2196 O.2     1  UNL1       -0.2651
      9 N          61.9453   89.8259    9.8575 N.ar    1  UNL1       -0.1873
     10 C          62.4683   90.8477   10.8231 C.ar    1  UNL1        0.1819
     11 N          63.0883   90.4090   12.1166 N.ar    1  UNL1       -0.3057
     12 O          63.4770   84.5669   13.4277 O.3     1  UNL1       -0.4360
     13 C          63.2001   81.1518   11.4250 C.ar    1  UNL1        0.1487
     14 C          63.8300   81.5371   10.1193 C.ar    1  UNL1        0.0577
     15 C          64.3422   82.9322    9.9164 C.ar    1  UNL1        0.1052
     16 N          64.2246   83.9422   11.0192 N.ar    1  UNL1       -0.2097
     17 C          63.5947   83.5570   12.3249 C.ar    1  UNL1        0.2365
     18 C          63.0824   82.1617   12.5278 C.ar    1  UNL1        0.1586
     19 C          62.4525   81.7765   13.8335 C.3     1  UNL1        0.4257
     20 F          61.8226   81.3913   15.1392 F       1  UNL1       -0.1656
     21 F          61.1319   81.6000   13.1443 F       1  UNL1       -0.1656
     22 F          63.7731   81.9530   14.5226 F       1  UNL1       -0.1656
     23 C          62.7201   78.7738   10.4952 C.3     1  UNL1        0.2525
     24 O          62.6879   79.7567   11.6279 O.3     1  UNL1       -0.4713
     25 C          63.6113   91.4307   13.0823 C.3     1  UNL1        0.1387
     26 C          65.0903   91.6090   13.2578 C.ar    1  UNL1        0.0555
     27 C          65.9406   92.0144   12.0906 C.ar    1  UNL1        0.1424
     28 F          65.3120   92.2415   10.7477 F       1  UNL1       -0.2043
     29 C          67.4196   92.1926   12.2661 C.ar    1  UNL1        0.0591
     30 C          68.0482   91.9654   13.6090 C.ar    1  UNL1        0.1446
     31 F          69.5273   92.1436   13.7845 F       1  UNL1       -0.2040
     32 C          67.1979   91.5600   14.7762 C.ar    1  UNL1        0.0591
     33 C          65.7189   91.3818   14.6007 C.ar    1  UNL1        0.1424
     34 F          64.8685   90.9764   15.7679 F       1  UNL1       -0.2043
@<TRIPOS>BOND
     1    23    24    1
     2    24    13    1
     3    13    14   ar
     4    14    15   ar
     5    15    16   ar
     6    16    17   ar
     7    17    12    1
     8    12     1    1
     9     1     2   ar
    10     2     3   ar
    11     3     4   ar
    12     4     5   ar
    13     5     6   ar
    14     5     7   ar
    15     7     8    2
    16     7     9   ar
    17     9    10   ar
    18    10    11   ar
    19    11    25    1
    20    25    26    1
    21    26    27   ar
    22    27    28    1
    23    27    29   ar
    24    29    30   ar
    25    30    31    1
    26    30    32   ar
    27    32    33   ar
    28    33    34    1
    29    17    18   ar
    30    18    19    1
    31    19    20    1
    32    19    21    1
    33    19    22    1
    34    18    13   ar
    35     6     1   ar
    36    33    26   ar
    37    11     4   ar
@<TRIPOS>MOLECULE
*****
 34 37 0 0 0
SMALL
GASTEIGER

@<TRIPOS>ATOM
      1 C          64.3802   86.2422   13.7028 C.ar    1  UNL1        0.1474
      2 C          64.8136   87.3125   14.6601 C.ar    1  UNL1        0.0390
      3 C          64.4111   88.7380   14.4236 C.ar    1  UNL1        0.0205
      4 C          63.5752   89.0931   13.2298 C.ar    1  UNL1        0.0662
      5 C          63.1418   88.0228   12.2725 C.ar    1  UNL1        0.0767
      6 C          63.5443   86.5973   12.5090 C.ar    1  UNL1        0.0438
      7 C          62.3059   88.3779   11.0787 C.ar    1  UNL1        0.2820
      8 O          61.8725   87.3075   10.1214 O.2     1  UNL1       -0.2651
      9 N          61.9034   89.8033   10.8422 N.ar    1  UNL1       -0.1873
     10 C          62.3368   90.8738   11.7996 C.ar    1  UNL1        0.1819
     11 N          63.1727   90.5187   12.9934 N.ar    1  UNL1       -0.3057
     12 O          64.7828   84.8166   13.9393 O.3     1  UNL1       -0.4360
     13 C          62.2989   81.8813   12.9573 C.ar    1  UNL1        0.1487
     14 C          62.8229   81.5080   11.6023 C.ar    1  UNL1        0.0577
     15 C          64.0001   82.2375   11.0263 C.ar    1  UNL1        0.1052
     16 N          64.6535   83.3404   11.8053 N.ar    1  UNL1       -0.2097
     17 C          64.1295   83.7138   13.1603 C.ar    1  UNL1        0.2365
     18 C          62.9522   82.9842   13.7363 C.ar    1  UNL1        0.1586
     19 C          62.4282   83.3575   15.0913 C.3     1  UNL1        0.4257
     20 F          61.9042   83.7308   16.4463 F       1  UNL1       -0.1656
     21 F          61.4276   84.2740   14.4519 F       1  UNL1       -0.1656
     22 F          63.4288   82.4410   15.7307 F       1  UNL1       -0.1656
     23 C          61.3050   79.7915   14.1384 C.3     1  UNL1        0.2525
     24 O          61.1217   81.1518   13.5333 O.3     1  UNL1       -0.4713
     25 C          63.6061   91.5890   13.9507 C.3     1  UNL1        0.1387
     26 C          65.0662   91.8632   14.1583 C.ar    1  UNL1        0.0555
     27 C          65.6048   92.0471   15.5461 C.ar    1  UNL1        0.1424
     28 F          64.6835   91.9569   16.7263 F       1  UNL1       -0.2043
     29 C          67.0649   92.3213   15.7536 C.ar    1  UNL1        0.0591
     30 C          67.9862   92.4115   14.5734 C.ar    1  UNL1        0.1446
     31 F          69.4463   92.6857   14.7810 F       1  UNL1       -0.2040
     32 C          67.4476   92.2276   13.1856 C.ar    1  UNL1        0.0591
     33 C          65.9876   91.9535   12.9781 C.ar    1  UNL1        0.1424
     34 F          65.4489   91.7695   11.5902 F       1  UNL1       -0.2043
@<TRIPOS>BOND
     1    23    24    1
     2    24    13    1
     3    13    14   ar
     4    14    15   ar
     5    15    16   ar
     6    16    17   ar
     7    17    12    1
     8    12     1    1
     9     1     2   ar
    10     2     3   ar
    11     3     4   ar
    12     4     5   ar
    13     5     6   ar
    14     5     7   ar
    15     7     8    2
    16     7     9   ar
    17     9    10   ar
    18    10    11   ar
    19    11    25    1
    20    25    26    1
    21    26    27   ar
    22    27    28    1
    23    27    29   ar
    24    29    30   ar
    25    30    31    1
    26    30    32   ar
    27    32    33   ar
    28    33    34    1
    29    17    18   ar
    30    18    19    1
    31    19    20    1
    32    19    21    1
    33    19    22    1
    34    18    13   ar
    35     6     1   ar
    36    33    26   ar
    37    11     4   ar
