@<TRIPOS>MOLECULE
*****
 66 73 0 0 0
SMALL
GASTEIGER

@<TRIPOS>ATOM
      1 N          65.7716   89.9194   13.9783 N.3     1  UNL1       -0.1862
      2 C          66.2083   88.7431   14.8003 C.3     1  UNL1        0.1775
      3 C          65.4100   87.4734   14.7760 C.2     1  UNL1        0.2452
      4 O          65.8468   86.2971   15.5980 O.2     1  UNL1       -0.2732
      5 N          64.1751   87.3799   13.9297 N.am    1  UNL1       -0.2541
      6 C          63.3769   86.1102   13.9054 C.3     1  UNL1        0.1577
      7 C          62.1419   86.0168   13.0592 C.2     1  UNL1        0.2445
      8 O          61.3437   84.7470   13.0349 O.2     1  UNL1       -0.2731
      9 N          61.7052   87.1931   12.2372 N.am    1  UNL1       -0.2705
     10 C          62.5034   88.4628   12.2615 C.3     1  UNL1        0.1359
     11 C          63.7384   88.5562   13.1078 C.3     1  UNL1        0.1908
     12 N          64.5367   89.8259   13.1321 N.am    1  UNL1       -0.1863
     13 C          64.0999   91.0023   12.3101 C.2     1  UNL1        0.3191
     14 O          62.8650   90.9088   11.4638 O.2     1  UNL1       -0.2512
     15 N          64.8982   92.2720   12.3344 N.am    1  UNL1       -0.2836
     16 H          65.7087   92.3333   12.8898 H       1  UNL1        0.1513
     17 C          66.5698   91.1891   14.0026 C.3     1  UNL1        0.1188
     18 C          67.0900   92.7651   16.0015 C.2     1  UNL1       -0.0034
     19 C          67.3979   91.5316   15.2055 C.2     1  UNL1       -0.0071
     20 C          63.8135   84.9339   14.7274 C.3     1  UNL1        0.0556
     21 C          63.4617   83.5424   14.2916 C.ar    1  UNL1       -0.0198
     22 C          62.2895   82.8376   14.9072 C.ar    1  UNL1       -0.0011
     23 C          61.9376   81.4460   14.4714 C.ar    1  UNL1        0.0363
     24 C          62.7581   80.7594   13.4201 C.ar    1  UNL1        0.1337
     25 O          62.4063   79.3678   12.9843 O.3     1  UNL1       -0.5055
     26 C          63.9304   81.4642   12.8045 C.ar    1  UNL1        0.0363
     27 C          64.2823   82.8557   13.2403 C.ar    1  UNL1       -0.0011
     28 H          61.6740   78.9276   13.3688 H       1  UNL1        0.2922
     29 C          60.4702   87.0996   11.3910 C.3     1  UNL1        0.1217
     30 C          60.5779   87.1710    9.8965 C.ar    1  UNL1        0.0135
     31 C          61.0412   85.9742    9.1199 C.ar    1  UNL1       -0.0012
     32 C          61.1489   86.0455    7.6255 C.ar    1  UNL1       -0.0002
     33 C          60.7933   87.3136    6.9077 C.ar    1  UNL1        0.0016
     34 C          60.3301   88.5104    7.6842 C.ar    1  UNL1        0.0214
     35 C          59.9137   89.8860    7.2546 C.ar    1  UNL1        0.0722
     36 C          59.5487   90.6647    8.4836 C.ar    1  UNL1        0.0805
     37 N          59.7395   89.7706    9.6726 N.ar    1  UNL1       -0.3241
     38 C          59.4909   90.1425   11.1043 C.3     1  UNL1        0.1305
     39 C          60.2224   88.4391    9.1786 C.ar    1  UNL1        0.0577
     40 C          59.8700   90.3936    5.8437 C.2     1  UNL1        0.2510
     41 O          58.6915   90.0806    4.9702 O.2     1  UNL1       -0.2698
     42 N          61.0049   91.2141    5.3064 N.am    1  UNL1       -0.2791
     43 H          61.7785   91.4195    5.8798 H       1  UNL1        0.1552
     44 C          60.9613   91.7218    3.8957 C.ar    1  UNL1        0.0701
     45 C          62.1415   91.5247    2.9909 C.ar    1  UNL1        0.0191
     46 C          62.0979   92.0323    1.5801 C.ar    1  UNL1        0.0356
     47 C          60.8743   92.7370    1.0740 C.ar    1  UNL1        0.1319
     48 N          59.6942   92.9340    1.9787 N.ar    1  UNL1       -0.2279
     49 C          59.7377   92.4264    3.3896 C.ar    1  UNL1        0.1149
     50 N          60.8307   93.2446   -0.3368 N.pl3   1  UNL1       -0.2904
     51 C          61.9372   94.1146   -0.8553 C.3     1  UNL1        0.1095
     52 C          61.8937   94.6223   -2.2661 C.3     1  UNL1        0.0938
     53 N          60.7437   94.2600   -3.1584 N.3     1  UNL1       -0.2723
     54 C          59.6372   93.3900   -2.6399 C.3     1  UNL1        0.0938
     55 C          59.6807   92.8823   -1.2291 C.3     1  UNL1        0.1095
     56 C          60.7001   94.7676   -4.5692 C.3     1  UNL1        0.0456
     57 C          59.2521   95.1197   -4.3977 C.3     1  UNL1        0.0160
     58 C          62.1480   94.4155   -4.7407 C.3     1  UNL1        0.0160
     59 C          60.6564   95.2753   -5.9800 C.3     1  UNL1        0.0160
     60 C          64.4615   93.4483   11.5124 C.3     1  UNL1        0.1177
     61 C          65.4502   94.1604   10.6376 C.ar    1  UNL1       -0.0025
     62 C          66.5640   93.3948    9.9871 C.ar    1  UNL1       -0.0026
     63 C          67.5527   94.1069    9.1123 C.ar    1  UNL1       -0.0003
     64 C          67.4276   95.5847    8.8880 C.ar    1  UNL1       -0.0000
     65 C          66.3138   96.3505    9.5385 C.ar    1  UNL1       -0.0003
     66 C          65.3251   95.6383   10.4134 C.ar    1  UNL1       -0.0026
@<TRIPOS>BOND
     1    18    19    2
     2    19    17    1
     3    17     1    1
     4     1     2    1
     5     2     3    1
     6     3     4    2
     7     3     5   am
     8     5     6    1
     9     6    20    1
    10    20    21    1
    11    21    22   ar
    12    22    23   ar
    13    23    24   ar
    14    24    25    1
    15    24    26   ar
    16    26    27   ar
    17     6     7    1
    18     7     8    2
    19     7     9   am
    20     9    29    1
    21    29    30    1
    22    30    31   ar
    23    31    32   ar
    24    32    33   ar
    25    33    34   ar
    26    34    35   ar
    27    35    40    1
    28    40    41    2
    29    40    42   am
    30    42    44    1
    31    44    45   ar
    32    45    46   ar
    33    46    47   ar
    34    47    50    1
    35    50    51    1
    36    51    52    1
    37    52    53    1
    38    53    56    1
    39    56    57    1
    40    56    58    1
    41    56    59    1
    42    53    54    1
    43    54    55    1
    44    47    48   ar
    45    48    49   ar
    46    35    36   ar
    47    36    37   ar
    48    37    38    1
    49    37    39   ar
    50     9    10    1
    51    10    11    1
    52    11    12    1
    53    12    13   am
    54    13    14    2
    55    13    15   am
    56    15    60    1
    57    60    61    1
    58    61    62   ar
    59    62    63   ar
    60    63    64   ar
    61    64    65   ar
    62    65    66   ar
    63    12     1    1
    64    66    61   ar
    65    11     5    1
    66    27    21   ar
    67    39    30   ar
    68    39    34   ar
    69    49    44   ar
    70    55    50    1
    71    25    28    1
    72    42    43    1
    73    15    16    1
