@<TRIPOS>MOLECULE
*****
 34 38 0 0 0
SMALL
GASTEIGER

@<TRIPOS>ATOM
      1 C          60.0923   89.1432    7.3969 C.3     1  UNL1        0.0827
      2 C          60.9182   89.6893    8.5237 C.3     1  UNL1        0.0309
      3 C          61.4331   88.7691    9.5905 C.3     1  UNL1        0.0954
      4 N          61.1220   87.3030    9.5306 N.am    1  UNL1       -0.2642
      5 C          61.6369   86.3828   10.5975 C.2     1  UNL1        0.3039
      6 O          61.3259   84.9166   10.5376 O.2     1  UNL1       -0.2526
      7 N          62.4629   86.9288   11.7243 N.am    1  UNL1       -0.2901
      8 C          60.2961   86.7570    8.4039 C.3     1  UNL1        0.0954
      9 C          59.7812   87.6771    7.3370 C.3     1  UNL1        0.0309
     10 H          62.6671   87.8911   11.7636 H       1  UNL1        0.1509
     11 C          59.4749   91.5289    4.3981 C.ar    1  UNL1        0.2033
     12 N          58.0952   91.4296    4.9783 N.ar    1  UNL1       -0.0560
     13 O          58.1585   90.5238    6.1722 O.2     1  UNL1       -0.3370
     14 C          59.5773   90.0633    6.3300 C.ar    1  UNL1        0.2362
     15 N          60.3909   90.6846    5.2335 N.ar    1  UNL1       -0.1908
     16 C          60.6581   93.9373    0.7857 C.ar    1  UNL1        0.1057
     17 C          61.6848   93.5839    1.8206 C.ar    1  UNL1        0.0184
     18 C          61.2903   92.7811    3.0247 C.ar    1  UNL1        0.0045
     19 C          59.8693   92.3317    3.1940 C.ar    1  UNL1        0.0392
     20 C          58.8427   92.6852    2.1590 C.ar    1  UNL1        0.0045
     21 C          59.2371   93.4880    0.9549 C.ar    1  UNL1        0.0184
     22 C          61.4470   95.5429   -1.6226 C.3     1  UNL1        0.1816
     23 S          61.0525   94.7401   -0.4185 S.O2    1  UNL1        0.0104
     24 O          62.4978   94.5860   -0.0478 O.2     1  UNL1       -0.1686
     25 O          59.6073   94.8942   -0.7892 O.2     1  UNL1       -0.1686
     26 C          62.9778   86.0087   12.7912 C.3     1  UNL1        0.0774
     27 C          63.7407   85.7948   14.0649 C.3     1  UNL1        0.0259
     28 C          63.1068   84.6290   13.3654 C.3     1  UNL1        0.0420
     29 C          62.8153   83.1594   13.2932 C.ar    1  UNL1       -0.0208
     30 C          63.2789   82.3600   12.1116 C.ar    1  UNL1       -0.0042
     31 C          62.9874   80.8904   12.0394 C.ar    1  UNL1       -0.0003
     32 C          62.2323   80.2202   13.1486 C.ar    1  UNL1       -0.0000
     33 C          61.7687   81.0195   14.3302 C.ar    1  UNL1       -0.0003
     34 C          62.0602   82.4891   14.4025 C.ar    1  UNL1       -0.0042
@<TRIPOS>BOND
     1    22    23    1
     2    23    24    2
     3    23    25    2
     4    23    16    1
     5    16    17   ar
     6    17    18   ar
     7    18    19   ar
     8    19    11    1
     9    11    12   ar
    10    12    13   ar
    11    13    14   ar
    12    14     1    1
    13     1     2    1
    14     2     3    1
    15     3     4    1
    16     4     5   am
    17     5     6    2
    18     5     7   am
    19     7    26    1
    20    26    27    1
    21    27    28    1
    22    28    29    1
    23    29    30   ar
    24    30    31   ar
    25    31    32   ar
    26    32    33   ar
    27    33    34   ar
    28     4     8    1
    29     8     9    1
    30    14    15   ar
    31    19    20   ar
    32    20    21   ar
    33    21    16   ar
    34    15    11   ar
    35     9     1    1
    36    28    26    1
    37    34    29   ar
    38     7    10    1
@<TRIPOS>MOLECULE
*****
 34 38 0 0 0
SMALL
GASTEIGER

@<TRIPOS>ATOM
      1 C          61.2275   93.0728    2.2258 C.3     1  UNL1        0.0827
      2 C          62.1206   92.1202    2.9640 C.3     1  UNL1        0.0309
      3 C          61.5638   91.2754    4.0713 C.3     1  UNL1        0.0954
      4 N          60.1139   91.3832    4.4404 N.am    1  UNL1       -0.2642
      5 C          59.5571   90.5383    5.5478 C.2     1  UNL1        0.3039
      6 O          58.1072   90.6461    5.9170 O.2     1  UNL1       -0.2526
      7 N          60.4502   89.5857    6.2860 N.am    1  UNL1       -0.2901
      8 C          59.2209   92.3358    3.7023 C.3     1  UNL1        0.0954
      9 C          59.7777   93.1806    2.5949 C.3     1  UNL1        0.0309
     10 H          61.4018   89.5150    6.0438 H       1  UNL1        0.1509
     11 C          62.8589   94.5985   -0.9486 C.ar    1  UNL1        0.2033
     12 N          62.4233   95.8369   -0.2228 N.ar    1  UNL1       -0.0560
     13 O          61.7591   95.4161    1.0547 O.2     1  UNL1       -0.3370
     14 C          61.7843   93.9177    1.1184 C.ar    1  UNL1        0.2362
     15 N          62.4640   93.4124   -0.1196 N.ar    1  UNL1       -0.1908
     16 C          64.9783   94.4653   -4.9159 C.ar    1  UNL1        0.1057
     17 C          64.9534   95.7372   -4.1213 C.ar    1  UNL1        0.0184
     18 C          64.2469   95.7817   -2.7988 C.ar    1  UNL1        0.0045
     19 C          63.5654   94.5541   -2.2710 C.ar    1  UNL1        0.0392
     20 C          63.5903   93.2822   -3.0656 C.ar    1  UNL1        0.0045
     21 C          64.2968   93.2378   -4.3881 C.ar    1  UNL1        0.0184
     22 C          66.3913   94.3765   -7.5609 C.3     1  UNL1        0.1816
     23 S          65.6848   94.4209   -6.2384 S.O2    1  UNL1        0.0104
     24 O          65.4974   95.9015   -6.3883 O.2     1  UNL1       -0.1686
     25 O          65.8723   92.9402   -6.0885 O.2     1  UNL1       -0.1686
     26 C          59.8934   88.7409    7.3934 C.3     1  UNL1        0.0774
     27 C          58.7304   88.2997    8.2317 C.3     1  UNL1        0.0259
     28 C          60.0921   87.7188    8.4731 C.3     1  UNL1        0.0420
     29 C          60.9929   86.7933    9.2360 C.ar    1  UNL1       -0.0208
     30 C          60.9165   86.7372   10.7329 C.ar    1  UNL1       -0.0042
     31 C          61.8174   85.8117   11.4958 C.ar    1  UNL1       -0.0003
     32 C          62.7946   84.9423   10.7616 C.ar    1  UNL1       -0.0000
     33 C          62.8711   84.9984    9.2646 C.ar    1  UNL1       -0.0003
     34 C          61.9702   85.9239    8.5018 C.ar    1  UNL1       -0.0042
@<TRIPOS>BOND
     1    22    23    1
     2    23    24    2
     3    23    25    2
     4    23    16    1
     5    16    17   ar
     6    17    18   ar
     7    18    19   ar
     8    19    11    1
     9    11    12   ar
    10    12    13   ar
    11    13    14   ar
    12    14     1    1
    13     1     2    1
    14     2     3    1
    15     3     4    1
    16     4     5   am
    17     5     6    2
    18     5     7   am
    19     7    26    1
    20    26    27    1
    21    27    28    1
    22    28    29    1
    23    29    30   ar
    24    30    31   ar
    25    31    32   ar
    26    32    33   ar
    27    33    34   ar
    28     4     8    1
    29     8     9    1
    30    14    15   ar
    31    19    20   ar
    32    20    21   ar
    33    21    16   ar
    34    15    11   ar
    35     9     1    1
    36    28    26    1
    37    34    29   ar
    38     7    10    1
@<TRIPOS>MOLECULE
*****
 34 38 0 0 0
SMALL
GASTEIGER

@<TRIPOS>ATOM
      1 C          59.7841   89.4225    7.1707 C.3     1  UNL1        0.0827
      2 C          59.9651   87.9579    6.9019 C.3     1  UNL1        0.0309
      3 C          60.5316   87.0647    7.9654 C.3     1  UNL1        0.0954
      4 N          60.9170   87.6360    9.2977 N.am    1  UNL1       -0.2642
      5 C          61.4835   86.7427   10.3614 C.2     1  UNL1        0.3039
      6 O          61.8690   87.3140   11.6936 O.2     1  UNL1       -0.2526
      7 N          61.6646   85.2781   10.0926 N.am    1  UNL1       -0.2901
      8 C          60.7360   89.1005    9.5665 C.3     1  UNL1        0.0954
      9 C          60.1695   89.9938    8.5030 C.3     1  UNL1        0.0309
     10 H          61.4116   84.9032    9.2181 H       1  UNL1        0.1509
     11 C          59.0386   91.8314    4.2199 C.ar    1  UNL1        0.2033
     12 N          57.6532   91.5496    4.7211 N.ar    1  UNL1       -0.0560
     13 O          57.7638   90.6129    5.8875 O.2     1  UNL1       -0.3370
     14 C          59.2176   90.3158    6.1072 C.ar    1  UNL1        0.2362
     15 N          60.0054   91.0689    5.0765 N.ar    1  UNL1       -0.1908
     16 C          60.1068   94.4965    0.7549 C.ar    1  UNL1        0.1057
     17 C          59.3340   93.2328    0.5187 C.ar    1  UNL1        0.0184
     18 C          58.9780   92.3444    1.6737 C.ar    1  UNL1        0.0045
     19 C          59.3947   92.7198    3.0649 C.ar    1  UNL1        0.0392
     20 C          60.1674   93.9835    3.3011 C.ar    1  UNL1        0.0045
     21 C          60.5235   94.8719    2.1461 C.ar    1  UNL1        0.0184
     22 C          60.8189   96.2732   -1.5551 C.3     1  UNL1        0.1816
     23 S          60.4628   95.3849   -0.4001 S.O2    1  UNL1        0.0104
     24 O          61.8914   94.9379   -0.3035 O.2     1  UNL1       -0.1686
     25 O          59.0342   95.8318   -0.4968 O.2     1  UNL1       -0.1686
     26 C          62.2311   84.3848   11.1561 C.3     1  UNL1        0.0774
     27 C          62.7130   83.0346   11.5975 C.3     1  UNL1        0.0259
     28 C          62.7303   84.1877   12.5567 C.3     1  UNL1        0.0420
     29 C          63.0287   84.7396   13.9193 C.ar    1  UNL1       -0.0208
     30 C          62.1839   84.3390   15.0922 C.ar    1  UNL1       -0.0042
     31 C          62.4822   84.8909   16.4547 C.ar    1  UNL1       -0.0003
     32 C          63.6253   85.8434   16.6442 C.ar    1  UNL1       -0.0000
     33 C          64.4700   86.2440   15.4713 C.ar    1  UNL1       -0.0003
     34 C          64.1718   85.6922   14.1089 C.ar    1  UNL1       -0.0042
@<TRIPOS>BOND
     1    22    23    1
     2    23    24    2
     3    23    25    2
     4    23    16    1
     5    16    17   ar
     6    17    18   ar
     7    18    19   ar
     8    19    11    1
     9    11    12   ar
    10    12    13   ar
    11    13    14   ar
    12    14     1    1
    13     1     2    1
    14     2     3    1
    15     3     4    1
    16     4     5   am
    17     5     6    2
    18     5     7   am
    19     7    26    1
    20    26    27    1
    21    27    28    1
    22    28    29    1
    23    29    30   ar
    24    30    31   ar
    25    31    32   ar
    26    32    33   ar
    27    33    34   ar
    28     4     8    1
    29     8     9    1
    30    14    15   ar
    31    19    20   ar
    32    20    21   ar
    33    21    16   ar
    34    15    11   ar
    35     9     1    1
    36    28    26    1
    37    34    29   ar
    38     7    10    1
@<TRIPOS>MOLECULE
*****
 34 38 0 0 0
SMALL
GASTEIGER

@<TRIPOS>ATOM
      1 C          60.2943   92.4313    2.8182 C.3     1  UNL1        0.0827
      2 C          61.7760   92.4772    2.5889 C.3     1  UNL1        0.0309
      3 C          62.3281   93.1980    1.3950 C.3     1  UNL1        0.0954
      4 N          61.3986   93.8728    0.4303 N.am    1  UNL1       -0.2642
      5 C          61.9507   94.5935   -0.7638 C.2     1  UNL1        0.3039
      6 O          61.0212   95.2683   -1.7285 O.2     1  UNL1       -0.2526
      7 N          63.4324   94.6395   -0.9931 N.am    1  UNL1       -0.2901
      8 C          59.9170   93.8268    0.6595 C.3     1  UNL1        0.0954
      9 C          59.3648   93.1061    1.8535 C.3     1  UNL1        0.0309
     10 H          64.0425   94.1966   -0.3599 H       1  UNL1        0.1509
     11 C          59.5746   90.3284    6.0003 C.ar    1  UNL1        0.2033
     12 N          58.2104   90.8744    5.6990 N.ar    1  UNL1       -0.0560
     13 O          58.3139   91.7287    4.4703 O.2     1  UNL1       -0.3370
     14 C          59.7422   91.7106    4.0122 C.ar    1  UNL1        0.2362
     15 N          60.5213   90.8451    4.9578 N.ar    1  UNL1       -0.1908
     16 C          60.6401   87.6162    9.4294 C.ar    1  UNL1        0.1057
     17 C          60.9154   89.0877    9.5234 C.ar    1  UNL1        0.0184
     18 C          60.5602   89.9917    8.3804 C.ar    1  UNL1        0.0045
     19 C          59.9298   89.4243    7.1433 C.ar    1  UNL1        0.0392
     20 C          59.6545   87.9528    7.0492 C.ar    1  UNL1        0.0045
     21 C          60.0097   87.0488    8.1922 C.ar    1  UNL1        0.0184
     22 C          61.3505   85.8081   11.7154 C.3     1  UNL1        0.1816
     23 S          60.9953   86.7121   10.5724 S.O2    1  UNL1        0.0104
     24 O          61.4399   85.6589    9.6012 O.2     1  UNL1       -0.1686
     25 O          60.5507   87.7653   11.5435 O.2     1  UNL1       -0.1686
     26 C          63.9846   95.3602   -2.1871 C.3     1  UNL1        0.0774
     27 C          64.3968   96.6372   -2.8576 C.3     1  UNL1        0.0259
     28 C          64.5287   95.3317   -3.5846 C.3     1  UNL1        0.0420
     29 C          64.9191   94.5616   -4.8112 C.ar    1  UNL1       -0.0208
     30 C          65.5272   95.2745   -5.9825 C.ar    1  UNL1       -0.0042
     31 C          65.9176   94.5044   -7.2091 C.ar    1  UNL1       -0.0003
     32 C          65.6998   93.0214   -7.2643 C.ar    1  UNL1       -0.0000
     33 C          65.0917   92.3085   -6.0931 C.ar    1  UNL1       -0.0003
     34 C          64.7014   93.0785   -4.8665 C.ar    1  UNL1       -0.0042
@<TRIPOS>BOND
     1    22    23    1
     2    23    24    2
     3    23    25    2
     4    23    16    1
     5    16    17   ar
     6    17    18   ar
     7    18    19   ar
     8    19    11    1
     9    11    12   ar
    10    12    13   ar
    11    13    14   ar
    12    14     1    1
    13     1     2    1
    14     2     3    1
    15     3     4    1
    16     4     5   am
    17     5     6    2
    18     5     7   am
    19     7    26    1
    20    26    27    1
    21    27    28    1
    22    28    29    1
    23    29    30   ar
    24    30    31   ar
    25    31    32   ar
    26    32    33   ar
    27    33    34   ar
    28     4     8    1
    29     8     9    1
    30    14    15   ar
    31    19    20   ar
    32    20    21   ar
    33    21    16   ar
    34    15    11   ar
    35     9     1    1
    36    28    26    1
    37    34    29   ar
    38     7    10    1
@<TRIPOS>MOLECULE
*****
 34 38 0 0 0
SMALL
GASTEIGER

@<TRIPOS>ATOM
      1 C          59.8864   90.6881    5.3116 C.3     1  UNL1        0.0827
      2 C          61.2540   90.9016    4.7335 C.3     1  UNL1        0.0309
      3 C          61.4659   91.9409    3.6730 C.3     1  UNL1        0.0954
      4 N          60.3104   92.7667    3.1905 N.am    1  UNL1       -0.2642
      5 C          60.5224   93.8062    2.1299 C.2     1  UNL1        0.3039
      6 O          59.3669   94.6320    1.6475 O.2     1  UNL1       -0.2526
      7 N          61.8900   94.0197    1.5518 N.am    1  UNL1       -0.2901
      8 C          58.9429   92.5532    3.7686 C.3     1  UNL1        0.0954
      9 C          58.7309   91.5139    4.8291 C.3     1  UNL1        0.0309
     10 H          62.6484   93.4777    1.8684 H       1  UNL1        0.1509
     11 C          60.0801   88.0655    8.1664 C.ar    1  UNL1        0.2033
     12 N          58.6160   88.0332    7.8420 N.ar    1  UNL1       -0.0560
     13 O          58.3652   89.0117    6.7331 O.2     1  UNL1       -0.3370
     14 C          59.6743   89.6488    6.3721 C.ar    1  UNL1        0.2362
     15 N          60.7342   89.0640    7.2580 N.ar    1  UNL1       -0.1908
     16 C          62.1474   85.6001   11.3125 C.ar    1  UNL1        0.1057
     17 C          61.1975   86.6883   11.7167 C.ar    1  UNL1        0.0184
     18 C          60.5084   87.5101   10.6680 C.ar    1  UNL1        0.0045
     19 C          60.7692   87.2437    9.2151 C.ar    1  UNL1        0.0392
     20 C          61.7191   86.1555    8.8109 C.ar    1  UNL1        0.0045
     21 C          62.4082   85.3336    9.8597 C.ar    1  UNL1        0.0184
     22 C          63.5255   83.9564   13.4100 C.3     1  UNL1        0.1816
     23 S          62.8364   84.7782   12.3613 S.O2    1  UNL1        0.0104
     24 O          62.5209   83.5305   11.5908 O.2     1  UNL1       -0.1686
     25 O          63.1520   86.0260   13.1317 O.2     1  UNL1       -0.1686
     26 C          62.1020   95.0590    0.4912 C.3     1  UNL1        0.0774
     27 C          62.1207   96.4979    0.0678 C.3     1  UNL1        0.0259
     28 C          62.4506   95.4204   -0.9222 C.3     1  UNL1        0.0420
     29 C          62.8424   95.0069   -2.3099 C.ar    1  UNL1       -0.0208
     30 C          61.8032   94.4895   -3.2598 C.ar    1  UNL1       -0.0042
     31 C          62.1950   94.0760   -4.6475 C.ar    1  UNL1       -0.0003
     32 C          63.6259   94.1800   -5.0851 C.ar    1  UNL1       -0.0000
     33 C          64.6650   94.6974   -4.1352 C.ar    1  UNL1       -0.0003
     34 C          64.2733   95.1109   -2.7476 C.ar    1  UNL1       -0.0042
@<TRIPOS>BOND
     1    22    23    1
     2    23    24    2
     3    23    25    2
     4    23    16    1
     5    16    17   ar
     6    17    18   ar
     7    18    19   ar
     8    19    11    1
     9    11    12   ar
    10    12    13   ar
    11    13    14   ar
    12    14     1    1
    13     1     2    1
    14     2     3    1
    15     3     4    1
    16     4     5   am
    17     5     6    2
    18     5     7   am
    19     7    26    1
    20    26    27    1
    21    27    28    1
    22    28    29    1
    23    29    30   ar
    24    30    31   ar
    25    31    32   ar
    26    32    33   ar
    27    33    34   ar
    28     4     8    1
    29     8     9    1
    30    14    15   ar
    31    19    20   ar
    32    20    21   ar
    33    21    16   ar
    34    15    11   ar
    35     9     1    1
    36    28    26    1
    37    34    29   ar
    38     7    10    1
@<TRIPOS>MOLECULE
*****
 34 38 0 0 0
SMALL
GASTEIGER

@<TRIPOS>ATOM
      1 C          59.6247   92.2667    3.6011 C.3     1  UNL1        0.0827
      2 C          60.8654   91.8623    4.3408 C.3     1  UNL1        0.0309
      3 C          60.7691   90.9356    5.5163 C.3     1  UNL1        0.0954
      4 N          59.4323   90.4133    5.9521 N.am    1  UNL1       -0.2642
      5 C          59.3361   89.4865    7.1277 C.2     1  UNL1        0.3039
      6 O          57.9992   88.9642    7.5636 O.2     1  UNL1       -0.2526
      7 N          60.5768   89.0822    7.8675 N.am    1  UNL1       -0.2901
      8 C          58.1917   90.8176    5.2124 C.3     1  UNL1        0.0954
      9 C          58.2878   91.7443    4.0369 C.3     1  UNL1        0.0309
     10 H          61.4542   89.4250    7.5814 H       1  UNL1        0.1509
     11 C          59.6928   94.0539    0.1563 C.ar    1  UNL1        0.2033
     12 N          60.0448   95.1849    1.0766 N.ar    1  UNL1       -0.0560
     13 O          60.0621   94.6531    2.4791 O.2     1  UNL1       -0.3370
     14 C          59.7208   93.1934    2.4255 C.ar    1  UNL1        0.2362
     15 N          59.4926   92.8231    0.9899 N.ar    1  UNL1       -0.1908
     16 C          59.3054   94.3088   -4.3198 C.ar    1  UNL1        0.1057
     17 C          58.0837   94.4029   -3.4547 C.ar    1  UNL1        0.0184
     18 C          58.2128   94.3180   -1.9627 C.ar    1  UNL1        0.0045
     19 C          59.5637   94.1389   -1.3357 C.ar    1  UNL1        0.0392
     20 C          60.7854   94.0447   -2.2009 C.ar    1  UNL1        0.0045
     21 C          60.6563   94.1296   -3.6929 C.ar    1  UNL1        0.0184
     22 C          59.0472   94.4786   -7.3038 C.3     1  UNL1        0.1816
     23 S          59.1763   94.3937   -5.8118 S.O2    1  UNL1        0.0104
     24 O          57.6859   94.2765   -5.6895 O.2     1  UNL1       -0.1686
     25 O          60.6667   94.5109   -5.9341 O.2     1  UNL1       -0.1686
     26 C          60.4806   88.1555    9.0430 C.3     1  UNL1        0.0774
     27 C          59.8111   87.7424   10.3203 C.3     1  UNL1        0.0259
     28 C          60.9835   86.9634    9.8020 C.3     1  UNL1        0.0420
     29 C          61.9507   85.8253    9.9410 C.ar    1  UNL1       -0.0208
     30 C          62.7353   85.3583    8.7509 C.ar    1  UNL1       -0.0042
     31 C          63.7025   84.2202    8.8899 C.ar    1  UNL1       -0.0003
     32 C          63.8851   83.5492   10.2189 C.ar    1  UNL1       -0.0000
     33 C          63.1005   84.0162   11.4090 C.ar    1  UNL1       -0.0003
     34 C          62.1333   85.1542   11.2700 C.ar    1  UNL1       -0.0042
@<TRIPOS>BOND
     1    22    23    1
     2    23    24    2
     3    23    25    2
     4    23    16    1
     5    16    17   ar
     6    17    18   ar
     7    18    19   ar
     8    19    11    1
     9    11    12   ar
    10    12    13   ar
    11    13    14   ar
    12    14     1    1
    13     1     2    1
    14     2     3    1
    15     3     4    1
    16     4     5   am
    17     5     6    2
    18     5     7   am
    19     7    26    1
    20    26    27    1
    21    27    28    1
    22    28    29    1
    23    29    30   ar
    24    30    31   ar
    25    31    32   ar
    26    32    33   ar
    27    33    34   ar
    28     4     8    1
    29     8     9    1
    30    14    15   ar
    31    19    20   ar
    32    20    21   ar
    33    21    16   ar
    34    15    11   ar
    35     9     1    1
    36    28    26    1
    37    34    29   ar
    38     7    10    1
@<TRIPOS>MOLECULE
*****
 34 38 0 0 0
SMALL
GASTEIGER

@<TRIPOS>ATOM
      1 C          60.1210   92.4717    3.2188 C.3     1  UNL1        0.0827
      2 C          61.2815   91.8888    3.9695 C.3     1  UNL1        0.0309
      3 C          61.0386   90.9714    5.1310 C.3     1  UNL1        0.0954
      4 N          59.6354   90.6368    5.5419 N.am    1  UNL1       -0.2642
      5 C          59.3925   89.7193    6.7035 C.2     1  UNL1        0.3039
      6 O          57.9893   89.3847    7.1144 O.2     1  UNL1       -0.2526
      7 N          60.5530   89.1364    7.4542 N.am    1  UNL1       -0.2901
      8 C          58.4749   91.2196    4.7913 C.3     1  UNL1        0.0954
      9 C          58.7177   92.1371    3.6297 C.3     1  UNL1        0.0309
     10 H          61.4740   89.3560    7.1845 H       1  UNL1        0.1509
     11 C          61.2573   94.3293    0.0058 C.ar    1  UNL1        0.2033
     12 N          60.2175   95.2727    0.5336 N.ar    1  UNL1       -0.0560
     13 O          59.6652   94.6918    1.8015 O.2     1  UNL1       -0.3370
     14 C          60.3638   93.3892    2.0572 C.ar    1  UNL1        0.2362
     15 N          61.3477   93.1652    0.9474 N.ar    1  UNL1       -0.1908
     16 C          63.6802   94.8924   -3.7443 C.ar    1  UNL1        0.1057
     17 C          62.4038   94.1056   -3.7871 C.ar    1  UNL1        0.0184
     18 C          61.5962   93.9180   -2.5371 C.ar    1  UNL1        0.0045
     19 C          62.0650   94.5170   -1.2442 C.ar    1  UNL1        0.0392
     20 C          63.3413   95.3037   -1.2015 C.ar    1  UNL1        0.0045
     21 C          64.1490   95.4914   -2.4515 C.ar    1  UNL1        0.0184
     22 C          65.2955   95.2677   -6.2443 C.3     1  UNL1        0.1816
     23 S          64.4878   95.0801   -4.9943 S.O2    1  UNL1        0.0104
     24 O          63.6325   94.0690   -5.6987 O.2     1  UNL1       -0.1686
     25 O          65.3432   96.0911   -4.2898 O.2     1  UNL1       -0.1686
     26 C          60.3103   88.2189    8.6158 C.3     1  UNL1        0.0774
     27 C          59.4685   87.7955    9.7829 C.3     1  UNL1        0.0259
     28 C          60.7314   87.0532    9.4606 C.3     1  UNL1        0.0420
     29 C          61.7038   85.9516    9.7622 C.ar    1  UNL1       -0.0208
     30 C          61.7758   85.3722   11.1439 C.ar    1  UNL1       -0.0042
     31 C          62.7482   84.2706   11.4456 C.ar    1  UNL1       -0.0003
     32 C          63.6485   83.7484   10.3655 C.ar    1  UNL1       -0.0000
     33 C          63.5765   84.3277    8.9838 C.ar    1  UNL1       -0.0003
     34 C          62.6042   85.4293    8.6822 C.ar    1  UNL1       -0.0042
@<TRIPOS>BOND
     1    22    23    1
     2    23    24    2
     3    23    25    2
     4    23    16    1
     5    16    17   ar
     6    17    18   ar
     7    18    19   ar
     8    19    11    1
     9    11    12   ar
    10    12    13   ar
    11    13    14   ar
    12    14     1    1
    13     1     2    1
    14     2     3    1
    15     3     4    1
    16     4     5   am
    17     5     6    2
    18     5     7   am
    19     7    26    1
    20    26    27    1
    21    27    28    1
    22    28    29    1
    23    29    30   ar
    24    30    31   ar
    25    31    32   ar
    26    32    33   ar
    27    33    34   ar
    28     4     8    1
    29     8     9    1
    30    14    15   ar
    31    19    20   ar
    32    20    21   ar
    33    21    16   ar
    34    15    11   ar
    35     9     1    1
    36    28    26    1
    37    34    29   ar
    38     7    10    1
