@<TRIPOS>MOLECULE
*****
 27 30 0 0 0
SMALL
GASTEIGER

@<TRIPOS>ATOM
      1 C          64.3398   90.7140   13.7845 C.2     1  UNL1        0.0000
      2 O          63.0066   90.3156   13.2244 O.2     1  UNL1        0.0000
      3 N          65.0082   89.8527   14.8147 N.am    1  UNL1        0.0000
      4 H          65.8833   90.1142   15.1823 H       1  UNL1        0.0000
      5 C          64.3433   88.5930   15.2850 C.ar    1  UNL1        0.0000
      6 C          63.3820   88.6368   16.4356 C.ar    1  UNL1        0.0000
      7 C          62.7171   87.3771   16.9058 C.ar    1  UNL1        0.0000
      8 C          63.0136   86.0736   16.2254 C.ar    1  UNL1        0.0000
      9 C          63.9749   86.0298   15.0748 C.ar    1  UNL1        0.0000
     10 C          64.6398   87.2895   14.6046 C.ar    1  UNL1        0.0000
     11 B          64.0697   84.6088   14.6039 B       1  UNL1        0.0000
     12 O          64.9183   84.1098   13.4721 O.3     1  UNL1        0.0000
     13 O          63.1669   83.7744   15.4634 O.3     1  UNL1        0.0000
     14 C          62.5142   84.6797   16.4656 C.3     1  UNL1        0.0000
     15 H          65.4056   84.8521   13.0817 H       1  UNL1        0.0000
     16 C          64.4610   91.7841   10.7039 C.3     1  UNL1        0.0000
     17 C          65.0604   92.4655   11.8982 C.ar    1  UNL1        0.0000
     18 C          65.0047   91.9737   13.3142 C.ar    1  UNL1        0.0000
     19 N          65.7306   92.9627   14.1774 N.ar    1  UNL1        0.0000
     20 N          66.2349   94.0658   13.2949 N.ar    1  UNL1        0.0000
     21 N          65.8208   93.7586   11.8862 N.ar    1  UNL1        0.0000
     22 C          66.1152   94.5971   10.6779 C.ar    1  UNL1        0.0000
     23 C          67.1729   94.1661    9.7055 C.ar    1  UNL1        0.0000
     24 C          67.4674   95.0046    8.4972 C.ar    1  UNL1        0.0000
     25 C          66.7041   96.2741    8.2611 C.ar    1  UNL1        0.0000
     26 C          65.6463   96.7051    9.2335 C.ar    1  UNL1        0.0000
     27 N          65.3519   95.8666   10.4419 N.ar    1  UNL1        0.0000
@<TRIPOS>BOND
     1    16    17    1
     2    17    18   ar
     3    18     1    1
     4     1     2    2
     5     1     3   am
     6     3     5    1
     7     5     6   ar
     8     6     7   ar
     9     7     8   ar
    10     8     9   ar
    11     9    10   ar
    12     9    11    1
    13    11    12    1
    14    11    13    1
    15    13    14    1
    16    18    19   ar
    17    19    20   ar
    18    20    21   ar
    19    21    22    1
    20    22    23   ar
    21    23    24   ar
    22    24    25   ar
    23    25    26   ar
    24    26    27   ar
    25    21    17   ar
    26    27    22   ar
    27    10     5   ar
    28    14     8    1
    29     3     4    1
    30    12    15    1
@<TRIPOS>MOLECULE
*****
 27 30 0 0 0
SMALL
GASTEIGER

@<TRIPOS>ATOM
      1 C          64.1273   90.2408   12.7475 C.2     1  UNL1        0.0000
      2 O          64.2437   91.5887   12.0996 O.2     1  UNL1        0.0000
      3 N          64.8805   89.9486   14.0113 N.am    1  UNL1        0.0000
      4 H          64.8040   89.0640   14.4366 H       1  UNL1        0.0000
      5 C          65.7501   91.0042   14.6273 C.ar    1  UNL1        0.0000
      6 C          65.2145   91.8672   15.7311 C.ar    1  UNL1        0.0000
      7 C          66.0842   92.9228   16.3470 C.ar    1  UNL1        0.0000
      8 C          67.4895   93.1154   15.8591 C.ar    1  UNL1        0.0000
      9 C          68.0251   92.2524   14.7554 C.ar    1  UNL1        0.0000
     10 C          67.1555   91.1969   14.1395 C.ar    1  UNL1        0.0000
     11 B          69.4398   92.6712   14.4846 B       1  UNL1        0.0000
     12 O          70.3551   92.0731   13.4577 O.3     1  UNL1        0.0000
     13 O          69.7785   93.7929   15.4211 O.3     1  UNL1        0.0000
     14 C          68.5732   94.0675   16.2706 C.3     1  UNL1        0.0000
     15 H          69.8917   91.3637   12.9855 H       1  UNL1        0.0000
     16 C          62.4590   90.5182    9.9565 C.3     1  UNL1        0.0000
     17 C          62.4908   89.3127   10.8487 C.ar    1  UNL1        0.0000
     18 C          63.2576   89.1852   12.1316 C.ar    1  UNL1        0.0000
     19 N          63.0020   87.8168   12.6903 N.ar    1  UNL1        0.0000
     20 N          62.0773   87.0986   11.7528 N.ar    1  UNL1        0.0000
     21 N          61.7613   88.0231   10.6145 N.ar    1  UNL1        0.0000
     22 C          60.8720   87.7125    9.4472 C.ar    1  UNL1        0.0000
     23 C          60.7920   86.3115    8.9171 C.ar    1  UNL1        0.0000
     24 C          59.9028   86.0009    7.7498 C.ar    1  UNL1        0.0000
     25 C          59.0935   87.0913    7.1126 C.ar    1  UNL1        0.0000
     26 C          59.1734   88.4923    7.6426 C.ar    1  UNL1        0.0000
     27 N          60.0627   88.8028    8.8100 N.ar    1  UNL1        0.0000
@<TRIPOS>BOND
     1    16    17    1
     2    17    18   ar
     3    18     1    1
     4     1     2    2
     5     1     3   am
     6     3     5    1
     7     5     6   ar
     8     6     7   ar
     9     7     8   ar
    10     8     9   ar
    11     9    10   ar
    12     9    11    1
    13    11    12    1
    14    11    13    1
    15    13    14    1
    16    18    19   ar
    17    19    20   ar
    18    20    21   ar
    19    21    22    1
    20    22    23   ar
    21    23    24   ar
    22    24    25   ar
    23    25    26   ar
    24    26    27   ar
    25    21    17   ar
    26    27    22   ar
    27    10     5   ar
    28    14     8    1
    29     3     4    1
    30    12    15    1
@<TRIPOS>MOLECULE
*****
 27 30 0 0 0
SMALL
GASTEIGER

@<TRIPOS>ATOM
      1 C          62.5738   89.8498   12.2455 C.2     1  UNL1        0.0000
      2 O          61.9517   90.8261   11.2916 O.2     1  UNL1        0.0000
      3 N          62.3633   88.3770   12.0549 N.am    1  UNL1        0.0000
      4 H          62.7716   87.7363   12.6810 H       1  UNL1        0.0000
      5 C          61.5306   87.8803   10.9102 C.ar    1  UNL1        0.0000
      6 C          60.1194   88.3611   10.7454 C.ar    1  UNL1        0.0000
      7 C          59.2868   87.8644    9.6008 C.ar    1  UNL1        0.0000
      8 C          59.8654   86.8870    8.6211 C.ar    1  UNL1        0.0000
      9 C          61.2766   86.4062    8.7860 C.ar    1  UNL1        0.0000
     10 C          62.1092   86.9028    9.9306 C.ar    1  UNL1        0.0000
     11 B          61.5732   85.4482    7.6706 B       1  UNL1        0.0000
     12 O          62.8701   84.7279    7.4485 O.3     1  UNL1        0.0000
     13 O          60.3453   85.3369    6.8163 O.3     1  UNL1        0.0000
     14 C          59.2898   86.2261    7.4037 C.3     1  UNL1        0.0000
     15 H          63.5005   84.9756    8.1428 H       1  UNL1        0.0000
     16 C          65.2984   91.6298   12.0048 C.3     1  UNL1        0.0000
     17 C          64.6588   91.1647   13.2794 C.ar    1  UNL1        0.0000
     18 C          63.4065   90.3465   13.3901 C.ar    1  UNL1        0.0000
     19 N          63.1330   90.1122   14.8462 N.ar    1  UNL1        0.0000
     20 N          64.2163   90.7856   15.6355 N.ar    1  UNL1        0.0000
     21 N          65.1594   91.4361   14.6672 N.ar    1  UNL1        0.0000
     22 C          66.3873   92.2202   15.0240 C.ar    1  UNL1        0.0000
     23 C          67.5319   91.5456   15.7203 C.ar    1  UNL1        0.0000
     24 C          68.7598   92.3298   16.0771 C.ar    1  UNL1        0.0000
     25 C          68.8431   93.7884   15.7376 C.ar    1  UNL1        0.0000
     26 C          67.6985   94.4630   15.0412 C.ar    1  UNL1        0.0000
     27 N          66.4706   93.6789   14.6844 N.ar    1  UNL1        0.0000
@<TRIPOS>BOND
     1    16    17    1
     2    17    18   ar
     3    18     1    1
     4     1     2    2
     5     1     3   am
     6     3     5    1
     7     5     6   ar
     8     6     7   ar
     9     7     8   ar
    10     8     9   ar
    11     9    10   ar
    12     9    11    1
    13    11    12    1
    14    11    13    1
    15    13    14    1
    16    18    19   ar
    17    19    20   ar
    18    20    21   ar
    19    21    22    1
    20    22    23   ar
    21    23    24   ar
    22    24    25   ar
    23    25    26   ar
    24    26    27   ar
    25    21    17   ar
    26    27    22   ar
    27    10     5   ar
    28    14     8    1
    29     3     4    1
    30    12    15    1
@<TRIPOS>MOLECULE
*****
 27 30 0 0 0
SMALL
GASTEIGER

@<TRIPOS>ATOM
      1 C          45.0123   74.9477   17.9905 C.2     1  UNL1        0.0000
      2 O          43.6593   75.5863   18.0979 O.2     1  UNL1        0.0000
      3 N          46.2344   75.7026   18.4222 N.am    1  UNL1        0.0000
      4 H          47.1224   75.2834   18.3517 H       1  UNL1        0.0000
      5 C          46.1036   77.0963   18.9614 C.ar    1  UNL1        0.0000
      6 C          46.0018   77.3217   20.4408 C.ar    1  UNL1        0.0000
      7 C          45.8710   78.7153   20.9799 C.ar    1  UNL1        0.0000
      8 C          45.8420   79.8836   20.0395 C.ar    1  UNL1        0.0000
      9 C          45.9438   79.6582   18.5600 C.ar    1  UNL1        0.0000
     10 C          46.0747   78.2646   18.0210 C.ar    1  UNL1        0.0000
     11 B          45.8876   80.9953   17.8826 B       1  UNL1        0.0000
     12 O          45.9559   81.2380   16.4039 O.3     1  UNL1        0.0000
     13 O          45.7510   82.0471   18.9433 O.3     1  UNL1        0.0000
     14 C          45.7228   81.3600   20.2764 C.3     1  UNL1        0.0000
     15 H          46.0434   80.3902   15.9408 H       1  UNL1        0.0000
     16 C          44.5338   74.0362   14.8938 C.3     1  UNL1        0.0000
     17 C          44.9232   73.1351   16.0279 C.ar    1  UNL1        0.0000
     18 C          45.1431   73.5540   17.4514 C.ar    1  UNL1        0.0000
     19 N          45.5169   72.3346   18.2410 N.ar    1  UNL1        0.0000
     20 N          45.5279   71.1621   17.3056 N.ar    1  UNL1        0.0000
     21 N          45.1610   71.6568   15.9378 N.ar    1  UNL1        0.0000
     22 C          45.0511   70.8201   14.6977 C.ar    1  UNL1        0.0000
     23 C          46.2496   70.0777   14.1852 C.ar    1  UNL1        0.0000
     24 C          46.1398   69.2410   12.9452 C.ar    1  UNL1        0.0000
     25 C          44.8315   69.1467   12.2175 C.ar    1  UNL1        0.0000
     26 C          43.6330   69.8891   12.7300 C.ar    1  UNL1        0.0000
     27 N          43.7428   70.7257   13.9701 N.ar    1  UNL1        0.0000
@<TRIPOS>BOND
     1    16    17    1
     2    17    18   ar
     3    18     1    1
     4     1     2    2
     5     1     3   am
     6     3     5    1
     7     5     6   ar
     8     6     7   ar
     9     7     8   ar
    10     8     9   ar
    11     9    10   ar
    12     9    11    1
    13    11    12    1
    14    11    13    1
    15    13    14    1
    16    18    19   ar
    17    19    20   ar
    18    20    21   ar
    19    21    22    1
    20    22    23   ar
    21    23    24   ar
    22    24    25   ar
    23    25    26   ar
    24    26    27   ar
    25    21    17   ar
    26    27    22   ar
    27    10     5   ar
    28    14     8    1
    29     3     4    1
    30    12    15    1
@<TRIPOS>MOLECULE
*****
 27 30 0 0 0
SMALL
GASTEIGER

@<TRIPOS>ATOM
      1 C          62.7383   89.7696   12.5571 C.2     1  UNL1        0.0000
      2 O          61.7049   90.5646   11.8156 O.2     1  UNL1        0.0000
      3 N          62.9814   88.3341   12.1964 N.am    1  UNL1        0.0000
      4 H          63.6597   87.8123   12.6831 H       1  UNL1        0.0000
      5 C          62.1911   87.6935   11.0941 C.ar    1  UNL1        0.0000
      6 C          62.0916   86.1990   11.0132 C.ar    1  UNL1        0.0000
      7 C          61.3013   85.5585    9.9109 C.ar    1  UNL1        0.0000
      8 C          60.6104   86.4125    8.8895 C.ar    1  UNL1        0.0000
      9 C          60.7099   87.9070    8.9703 C.ar    1  UNL1        0.0000
     10 C          61.5002   88.5475   10.0726 C.ar    1  UNL1        0.0000
     11 B          59.9273   88.4860    7.8291 B       1  UNL1        0.0000
     12 O          59.7577   89.9455    7.5271 O.3     1  UNL1        0.0000
     13 O          59.3442   87.3494    7.0430 O.3     1  UNL1        0.0000
     14 C          59.7664   86.0679    7.6983 C.3     1  UNL1        0.0000
     15 H          60.2357   90.4702    8.1882 H       1  UNL1        0.0000
     16 C          65.5796   91.3387   12.2183 C.3     1  UNL1        0.0000
     17 C          64.8347   91.1314   13.5037 C.ar    1  UNL1        0.0000
     18 C          63.5287   90.4102   13.6595 C.ar    1  UNL1        0.0000
     19 N          63.1518   90.4419   15.1110 N.ar    1  UNL1        0.0000
     20 N          64.2249   91.1828   15.8524 N.ar    1  UNL1        0.0000
     21 N          65.2650   91.6089   14.8590 N.ar    1  UNL1        0.0000
     22 C          66.5157   92.3776   15.1669 C.ar    1  UNL1        0.0000
     23 C          67.6443   91.7123   15.8974 C.ar    1  UNL1        0.0000
     24 C          68.8950   92.4810   16.2053 C.ar    1  UNL1        0.0000
     25 C          69.0171   93.9150   15.7827 C.ar    1  UNL1        0.0000
     26 C          67.8885   94.5804   15.0523 C.ar    1  UNL1        0.0000
     27 N          66.6378   93.8117   14.7444 N.ar    1  UNL1        0.0000
@<TRIPOS>BOND
     1    16    17    1
     2    17    18   ar
     3    18     1    1
     4     1     2    2
     5     1     3   am
     6     3     5    1
     7     5     6   ar
     8     6     7   ar
     9     7     8   ar
    10     8     9   ar
    11     9    10   ar
    12     9    11    1
    13    11    12    1
    14    11    13    1
    15    13    14    1
    16    18    19   ar
    17    19    20   ar
    18    20    21   ar
    19    21    22    1
    20    22    23   ar
    21    23    24   ar
    22    24    25   ar
    23    25    26   ar
    24    26    27   ar
    25    21    17   ar
    26    27    22   ar
    27    10     5   ar
    28    14     8    1
    29     3     4    1
    30    12    15    1
@<TRIPOS>MOLECULE
*****
 27 30 0 0 0
SMALL
GASTEIGER

@<TRIPOS>ATOM
      1 C          63.5212   88.2459   12.8926 C.2     1  UNL1        0.0000
      2 O          63.5172   89.4277   11.9689 O.2     1  UNL1        0.0000
      3 N          64.0902   88.3759   14.2743 N.am    1  UNL1        0.0000
      4 H          64.0928   87.6002   14.8806 H       1  UNL1        0.0000
      5 C          64.6551   89.6878   14.7325 C.ar    1  UNL1        0.0000
      6 C          63.9147   90.5106   15.7448 C.ar    1  UNL1        0.0000
      7 C          64.4797   91.8224   16.2029 C.ar    1  UNL1        0.0000
      8 C          65.7850   92.3114   15.6488 C.ar    1  UNL1        0.0000
      9 C          66.5253   91.4885   14.6365 C.ar    1  UNL1        0.0000
     10 C          65.9604   90.1767   14.1784 C.ar    1  UNL1        0.0000
     11 B          67.7811   92.2231   14.2710 B       1  UNL1        0.0000
     12 O          68.8189   91.7618   13.2911 O.3     1  UNL1        0.0000
     13 O          67.8168   93.5000   15.0574 O.3     1  UNL1        0.0000
     14 C          66.5831   93.5546   15.9089 C.3     1  UNL1        0.0000
     15 H          68.5559   90.9044   12.9214 H       1  UNL1        0.0000
     16 C          64.2138   85.3153   14.1501 C.3     1  UNL1        0.0000
     17 C          63.2747   85.5870   13.0125 C.ar    1  UNL1        0.0000
     18 C          62.9563   86.9340   12.4344 C.ar    1  UNL1        0.0000
     19 N          61.9739   86.7388   11.3178 N.ar    1  UNL1        0.0000
     20 N          61.6851   85.2712   11.2057 N.ar    1  UNL1        0.0000
     21 N          62.4890   84.5592   12.2531 N.ar    1  UNL1        0.0000
     22 C          62.5045   83.0795   12.4980 C.ar    1  UNL1        0.0000
     23 C          62.9225   82.1424   11.4038 C.ar    1  UNL1        0.0000
     24 C          62.9380   80.6627   11.6488 C.ar    1  UNL1        0.0000
     25 C          62.5355   80.1199   12.9879 C.ar    1  UNL1        0.0000
     26 C          62.1176   81.0570   14.0822 C.ar    1  UNL1        0.0000
     27 N          62.1020   82.5367   13.8372 N.ar    1  UNL1        0.0000
@<TRIPOS>BOND
     1    16    17    1
     2    17    18   ar
     3    18     1    1
     4     1     2    2
     5     1     3   am
     6     3     5    1
     7     5     6   ar
     8     6     7   ar
     9     7     8   ar
    10     8     9   ar
    11     9    10   ar
    12     9    11    1
    13    11    12    1
    14    11    13    1
    15    13    14    1
    16    18    19   ar
    17    19    20   ar
    18    20    21   ar
    19    21    22    1
    20    22    23   ar
    21    23    24   ar
    22    24    25   ar
    23    25    26   ar
    24    26    27   ar
    25    21    17   ar
    26    27    22   ar
    27    10     5   ar
    28    14     8    1
    29     3     4    1
    30    12    15    1
@<TRIPOS>MOLECULE
*****
 27 30 0 0 0
SMALL
GASTEIGER

@<TRIPOS>ATOM
      1 C          64.0688   88.2111   13.9708 C.2     1  UNL1        0.0000
      2 O          63.4845   88.6497   12.6608 O.2     1  UNL1        0.0000
      3 N          64.9861   89.1259   14.7267 N.am    1  UNL1        0.0000
      4 H          65.3696   88.8380   15.5866 H       1  UNL1        0.0000
      5 C          65.3192   90.4795   14.1727 C.ar    1  UNL1        0.0000
      6 C          66.1838   91.4198   14.9590 C.ar    1  UNL1        0.0000
      7 C          66.5169   92.7732   14.4049 C.ar    1  UNL1        0.0000
      8 C          65.9853   93.1865   13.0645 C.ar    1  UNL1        0.0000
      9 C          65.1207   92.2462   12.2782 C.ar    1  UNL1        0.0000
     10 C          64.7877   90.8927   12.8323 C.ar    1  UNL1        0.0000
     11 B          64.7446   92.9258   10.9949 B       1  UNL1        0.0000
     12 O          63.8869   92.3468    9.9091 O.3     1  UNL1        0.0000
     13 O          65.3767   94.2861   10.9882 O.3     1  UNL1        0.0000
     14 C          66.1436   94.4472   12.2672 C.3     1  UNL1        0.0000
     15 H          63.6055   91.4533   10.1612 H       1  UNL1        0.0000
     16 C          63.4650   85.5199   12.2264 C.3     1  UNL1        0.0000
     17 C          63.4581   85.6206   13.7230 C.ar    1  UNL1        0.0000
     18 C          63.7356   86.8575   14.5249 C.ar    1  UNL1        0.0000
     19 N          63.6216   86.5033   15.9780 N.ar    1  UNL1        0.0000
     20 N          63.2736   85.0474   16.0743 N.ar    1  UNL1        0.0000
     21 N          63.1725   84.5018   14.6806 N.ar    1  UNL1        0.0000
     22 C          62.8437   83.0861   14.3097 C.ar    1  UNL1        0.0000
     23 C          63.8837   82.2189   13.6645 C.ar    1  UNL1        0.0000
     24 C          63.5548   80.8032   13.2936 C.ar    1  UNL1        0.0000
     25 C          62.1859   80.2547   13.5679 C.ar    1  UNL1        0.0000
     26 C          61.1459   81.1219   14.2132 C.ar    1  UNL1        0.0000
     27 N          61.4748   82.5376   14.5841 N.ar    1  UNL1        0.0000
@<TRIPOS>BOND
     1    16    17    1
     2    17    18   ar
     3    18     1    1
     4     1     2    2
     5     1     3   am
     6     3     5    1
     7     5     6   ar
     8     6     7   ar
     9     7     8   ar
    10     8     9   ar
    11     9    10   ar
    12     9    11    1
    13    11    12    1
    14    11    13    1
    15    13    14    1
    16    18    19   ar
    17    19    20   ar
    18    20    21   ar
    19    21    22    1
    20    22    23   ar
    21    23    24   ar
    22    24    25   ar
    23    25    26   ar
    24    26    27   ar
    25    21    17   ar
    26    27    22   ar
    27    10     5   ar
    28    14     8    1
    29     3     4    1
    30    12    15    1
@<TRIPOS>MOLECULE
*****
 27 30 0 0 0
SMALL
GASTEIGER

@<TRIPOS>ATOM
      1 C          63.3879   91.0404   10.3510 C.2     1  UNL1        0.0000
      2 O          62.7003   91.6480    9.1644 O.2     1  UNL1        0.0000
      3 N          63.0048   89.6675   10.8181 N.am    1  UNL1        0.0000
      4 H          63.4561   89.2687   11.5969 H       1  UNL1        0.0000
      5 C          61.9339   88.9021   10.0986 C.ar    1  UNL1        0.0000
      6 C          60.5065   89.3561   10.1765 C.ar    1  UNL1        0.0000
      7 C          59.4357   88.5907    9.4570 C.ar    1  UNL1        0.0000
      8 C          59.7925   87.3713    8.6597 C.ar    1  UNL1        0.0000
      9 C          61.2200   86.9173    8.5818 C.ar    1  UNL1        0.0000
     10 C          62.2907   87.6827    9.3013 C.ar    1  UNL1        0.0000
     11 B          61.2690   85.6871    7.7249 B       1  UNL1        0.0000
     12 O          62.4992   84.9012    7.3802 O.3     1  UNL1        0.0000
     13 O          59.8718   85.3809    7.2731 O.3     1  UNL1        0.0000
     14 C          58.9592   86.4217    7.8509 C.3     1  UNL1        0.0000
     15 H          63.2724   85.3108    7.7991 H       1  UNL1        0.0000
     16 C          64.5683   90.3606   13.3165 C.3     1  UNL1        0.0000
     17 C          65.0013   91.4932   12.4335 C.ar    1  UNL1        0.0000
     18 C          64.4587   91.8058   11.0705 C.ar    1  UNL1        0.0000
     19 N          65.1750   93.0180   10.5532 N.ar    1  UNL1        0.0000
     20 N          66.1602   93.4547   11.5966 N.ar    1  UNL1        0.0000
     21 N          66.0529   92.5124   12.7587 N.ar    1  UNL1        0.0000
     22 C          66.8560   92.5777   14.0239 C.ar    1  UNL1        0.0000
     23 C          66.1606   92.6544   15.3507 C.ar    1  UNL1        0.0000
     24 C          66.9637   92.7197   16.6158 C.ar    1  UNL1        0.0000
     25 C          68.4624   92.7083   16.5541 C.ar    1  UNL1        0.0000
     26 C          69.1579   92.6316   15.2273 C.ar    1  UNL1        0.0000
     27 N          68.3547   92.5663   13.9622 N.ar    1  UNL1        0.0000
@<TRIPOS>BOND
     1    16    17    1
     2    17    18   ar
     3    18     1    1
     4     1     2    2
     5     1     3   am
     6     3     5    1
     7     5     6   ar
     8     6     7   ar
     9     7     8   ar
    10     8     9   ar
    11     9    10   ar
    12     9    11    1
    13    11    12    1
    14    11    13    1
    15    13    14    1
    16    18    19   ar
    17    19    20   ar
    18    20    21   ar
    19    21    22    1
    20    22    23   ar
    21    23    24   ar
    22    24    25   ar
    23    25    26   ar
    24    26    27   ar
    25    21    17   ar
    26    27    22   ar
    27    10     5   ar
    28    14     8    1
    29     3     4    1
    30    12    15    1
@<TRIPOS>MOLECULE
*****
 27 30 0 0 0
SMALL
GASTEIGER

@<TRIPOS>ATOM
      1 C          63.8657   87.7696   13.7808 C.2     1  UNL1        0.0000
      2 O          63.4423   88.1083   12.3821 O.2     1  UNL1        0.0000
      3 N          64.6058   88.7803   14.6058 N.am    1  UNL1        0.0000
      4 H          64.8836   88.5580   15.5238 H       1  UNL1        0.0000
      5 C          64.9226   90.1297   14.0323 C.ar    1  UNL1        0.0000
      6 C          64.2880   90.5653   12.7449 C.ar    1  UNL1        0.0000
      7 C          64.6048   91.9146   12.1715 C.ar    1  UNL1        0.0000
      8 C          65.5564   92.8283   12.8854 C.ar    1  UNL1        0.0000
      9 C          66.1910   92.3927   14.1728 C.ar    1  UNL1        0.0000
     10 C          65.8742   91.0434   14.7462 C.ar    1  UNL1        0.0000
     11 B          67.0836   93.5007   14.6477 B       1  UNL1        0.0000
     12 O          67.9135   93.4901   15.8972 O.3     1  UNL1        0.0000
     13 O          67.0006   94.6211   13.6539 O.3     1  UNL1        0.0000
     14 C          66.0567   94.2056   12.5647 C.3     1  UNL1        0.0000
     15 H          67.7874   92.6482   16.3620 H       1  UNL1        0.0000
     16 C          63.1792   85.0736   12.0750 C.3     1  UNL1        0.0000
     17 C          63.2333   85.1811   13.5701 C.ar    1  UNL1        0.0000
     18 C          63.5488   86.4203   14.3543 C.ar    1  UNL1        0.0000
     19 N          63.4919   86.0732   15.8124 N.ar    1  UNL1        0.0000
     20 N          63.1411   84.6195   15.9296 N.ar    1  UNL1        0.0000
     21 N          62.9813   84.0681   14.5438 N.ar    1  UNL1        0.0000
     22 C          62.6310   82.6523   14.1932 C.ar    1  UNL1        0.0000
     23 C          63.6307   81.7853   13.4869 C.ar    1  UNL1        0.0000
     24 C          63.2804   80.3695   13.1363 C.ar    1  UNL1        0.0000
     25 C          61.9305   79.8208   13.4920 C.ar    1  UNL1        0.0000
     26 C          60.9308   80.6879   14.1983 C.ar    1  UNL1        0.0000
     27 N          61.2811   82.1037   14.5489 N.ar    1  UNL1        0.0000
@<TRIPOS>BOND
     1    16    17    1
     2    17    18   ar
     3    18     1    1
     4     1     2    2
     5     1     3   am
     6     3     5    1
     7     5     6   ar
     8     6     7   ar
     9     7     8   ar
    10     8     9   ar
    11     9    10   ar
    12     9    11    1
    13    11    12    1
    14    11    13    1
    15    13    14    1
    16    18    19   ar
    17    19    20   ar
    18    20    21   ar
    19    21    22    1
    20    22    23   ar
    21    23    24   ar
    22    24    25   ar
    23    25    26   ar
    24    26    27   ar
    25    21    17   ar
    26    27    22   ar
    27    10     5   ar
    28    14     8    1
    29     3     4    1
    30    12    15    1
