@<TRIPOS>MOLECULE
*****
 33 37 0 0 0
SMALL
GASTEIGER

@<TRIPOS>ATOM
      1 N          62.6843   85.7998   11.4118 N.ar    1  UNL1       -0.3107
      2 C          63.0692   84.3975   11.7798 C.ar    1  UNL1        0.0805
      3 C          62.8824   83.0873   11.0736 C.ar    1  UNL1        0.1160
      4 N          63.3831   81.8197   11.7000 N.ar    1  UNL1       -0.2408
      5 C          64.0707   81.8622   13.0324 C.ar    1  UNL1        0.0990
      6 C          64.2575   83.1724   13.7386 C.ar    1  UNL1        0.0223
      7 C          63.7567   84.4400   13.1122 C.ar    1  UNL1        0.0233
      8 C          63.7968   85.8686   13.5677 C.ar    1  UNL1        0.0549
      9 C          64.3512   86.5127   14.8037 C.ar    1  UNL1        0.1048
     10 N          64.2428   87.9973   14.9888 N.ar    1  UNL1       -0.2119
     11 C          63.5800   88.8378   13.9379 C.ar    1  UNL1        0.2231
     12 N          63.0256   88.1936   12.7019 N.ar    1  UNL1       -0.1961
     13 C          63.1340   86.7090   12.5169 C.ar    1  UNL1        0.1482
     14 C          62.5747   85.9135    8.8185 C.3     1  UNL1        0.0272
     15 C          61.9744   86.2192   10.1588 C.3     1  UNL1        0.1161
     16 C          60.6643   86.9443   10.2459 C.3     1  UNL1        0.1596
     17 O          60.1902   87.4810   11.5640 O.3     1  UNL1       -0.3800
     18 H          60.0077   86.7432   12.1667 H       1  UNL1        0.2105
     19 N          63.4716   90.3224   14.1230 N.pl3   1  UNL1       -0.2679
     20 H          62.9171   90.6887   14.8494 H       1  UNL1        0.1565
     21 C          64.2079   91.2488   13.2014 C.ar    1  UNL1        0.1344
     22 C          63.8891   91.2584   11.7357 C.ar    1  UNL1        0.0358
     23 C          64.6255   92.1849   10.8140 C.ar    1  UNL1        0.0190
     24 C          65.6807   93.1018   11.3581 C.ar    1  UNL1        0.0675
     25 C          65.9995   93.0922   12.8238 C.ar    1  UNL1        0.1147
     26 N          65.2631   92.1657   13.7455 N.ar    1  UNL1       -0.2277
     27 N          66.4170   94.0282   10.4364 N.pl3   1  UNL1       -0.3035
     28 C          66.2991   95.5130   10.6141 C.3     1  UNL1        0.1079
     29 C          67.0354   96.4395    9.6925 C.3     1  UNL1        0.0903
     30 N          67.8898   95.8812    8.5932 N.3     1  UNL1       -0.2946
     31 C          68.0077   94.3964    8.4155 C.3     1  UNL1        0.0903
     32 C          67.2714   93.4700    9.3371 C.3     1  UNL1        0.1079
     33 H          68.8341   96.2355    8.7454 H       1  UNL1        0.1233
@<TRIPOS>BOND
     1    15    14    1
     2    15    16    1
     3    16    17    1
     4    15     1    1
     5     1     2   ar
     6     2     3   ar
     7     3     4   ar
     8     4     5   ar
     9     5     6   ar
    10     6     7   ar
    11     7     8   ar
    12     8     9   ar
    13     9    10   ar
    14    10    11   ar
    15    11    19    1
    16    19    21    1
    17    21    22   ar
    18    22    23   ar
    19    23    24   ar
    20    24    27    1
    21    27    28    1
    22    28    29    1
    23    29    30    1
    24    30    31    1
    25    31    32    1
    26    24    25   ar
    27    25    26   ar
    28    11    12   ar
    29    12    13   ar
    30    13     1   ar
    31     7     2   ar
    32    13     8   ar
    33    26    21   ar
    34    32    27    1
    35    17    18    1
    36    19    20    1
    37    30    33    1
@<TRIPOS>MOLECULE
*****
 33 37 0 0 0
SMALL
GASTEIGER

@<TRIPOS>ATOM
      1 N          63.0455   84.3001   13.6078 N.ar    1  UNL1       -0.3107
      2 C          63.0185   82.8688   13.1598 C.ar    1  UNL1        0.0805
      3 C          63.2356   81.5816   13.8985 C.ar    1  UNL1        0.1160
      4 N          63.1435   80.2738   13.1696 N.ar    1  UNL1       -0.2408
      5 C          62.8343   80.2534   11.7020 C.ar    1  UNL1        0.0990
      6 C          62.6172   81.5406   10.9632 C.ar    1  UNL1        0.0223
      7 C          62.7093   82.8483   11.6921 C.ar    1  UNL1        0.0233
      8 C          62.5451   84.2670   11.2332 C.ar    1  UNL1        0.0549
      9 C          62.2333   84.8576    9.8901 C.ar    1  UNL1        0.1048
     10 N          62.1292   86.3456    9.7311 N.ar    1  UNL1       -0.2119
     11 C          62.3370   87.2428   10.9150 C.ar    1  UNL1        0.2231
     12 N          62.6488   86.6521   12.2581 N.ar    1  UNL1       -0.1961
     13 C          62.7529   85.1642   12.4172 C.ar    1  UNL1        0.1482
     14 C          64.5947   85.5062   15.3094 C.3     1  UNL1        0.0272
     15 C          63.3172   84.7825   15.0019 C.3     1  UNL1        0.1161
     16 C          62.3117   84.5413   16.0884 C.3     1  UNL1        0.1596
     17 O          61.7538   85.6976   16.8642 O.3     1  UNL1       -0.3800
     18 H          62.4610   86.1083   17.3858 H       1  UNL1        0.2105
     19 N          62.2329   88.7307   10.7559 N.pl3   1  UNL1       -0.2679
     20 H          61.5855   89.1138   10.1209 H       1  UNL1        0.1565
     21 C          63.1153   89.6350   11.5645 C.ar    1  UNL1        0.1344
     22 C          63.6776   90.8815   10.9480 C.ar    1  UNL1        0.0358
     23 C          64.5601   91.7858   11.7565 C.ar    1  UNL1        0.0190
     24 C          64.8801   91.4436   13.1815 C.ar    1  UNL1        0.0675
     25 C          64.3177   90.1970   13.7979 C.ar    1  UNL1        0.1147
     26 N          63.4353   89.2928   12.9894 N.ar    1  UNL1       -0.2277
     27 N          65.7624   92.3478   13.9900 N.pl3   1  UNL1       -0.3035
     28 C          66.2740   93.6257   13.3939 C.3     1  UNL1        0.1079
     29 C          67.1563   94.5300   14.2024 C.3     1  UNL1        0.0903
     30 N          67.5272   94.1564   15.6070 N.3     1  UNL1       -0.2946
     31 C          67.0156   92.8785   16.2031 C.3     1  UNL1        0.0903
     32 C          66.1333   91.9742   15.3946 C.3     1  UNL1        0.1079
     33 H          67.2016   94.9130   16.2087 H       1  UNL1        0.1233
@<TRIPOS>BOND
     1    15    14    1
     2    15    16    1
     3    16    17    1
     4    15     1    1
     5     1     2   ar
     6     2     3   ar
     7     3     4   ar
     8     4     5   ar
     9     5     6   ar
    10     6     7   ar
    11     7     8   ar
    12     8     9   ar
    13     9    10   ar
    14    10    11   ar
    15    11    19    1
    16    19    21    1
    17    21    22   ar
    18    22    23   ar
    19    23    24   ar
    20    24    27    1
    21    27    28    1
    22    28    29    1
    23    29    30    1
    24    30    31    1
    25    31    32    1
    26    24    25   ar
    27    25    26   ar
    28    11    12   ar
    29    12    13   ar
    30    13     1   ar
    31     7     2   ar
    32    13     8   ar
    33    26    21   ar
    34    32    27    1
    35    17    18    1
    36    19    20    1
    37    30    33    1
@<TRIPOS>MOLECULE
*****
 33 37 0 0 0
SMALL
GASTEIGER

@<TRIPOS>ATOM
      1 N          66.3873   92.3234   13.9342 N.ar    1  UNL1       -0.3107
      2 C          66.1992   93.1561   12.7008 C.ar    1  UNL1        0.0805
      3 C          66.8722   94.4086   12.2232 C.ar    1  UNL1        0.1160
      4 N          66.4646   95.0286   10.9196 N.ar    1  UNL1       -0.2408
      5 C          65.3841   94.3960   10.0936 C.ar    1  UNL1        0.0990
      6 C          64.7111   93.1435   10.5712 C.ar    1  UNL1        0.0223
      7 C          65.1186   92.5235   11.8748 C.ar    1  UNL1        0.0233
      8 C          64.6390   91.2999   12.5977 C.ar    1  UNL1        0.0549
      9 C          63.5895   90.2822   12.2614 C.ar    1  UNL1        0.1048
     10 N          63.3242   89.1409   13.1979 N.ar    1  UNL1       -0.2119
     11 C          64.1082   89.0172   14.4706 C.ar    1  UNL1        0.2231
     12 N          65.1577   90.0348   14.8069 N.ar    1  UNL1       -0.1961
     13 C          65.4231   91.1761   13.8705 C.ar    1  UNL1        0.1482
     14 C          66.8808   92.7799   16.4438 C.3     1  UNL1        0.0272
     15 C          67.3676   92.5909   15.0376 C.3     1  UNL1        0.1161
     16 C          68.8346   92.6695   14.7348 C.3     1  UNL1        0.1596
     17 O          69.4120   91.8654   13.6079 O.3     1  UNL1       -0.3800
     18 H          69.3393   90.9205   13.8144 H       1  UNL1        0.2105
     19 N          63.8428   87.8758   15.4071 N.pl3   1  UNL1       -0.2679
     20 H          63.8128   88.0329   16.3785 H       1  UNL1        0.1565
     21 C          63.6232   86.4952   14.8635 C.ar    1  UNL1        0.1344
     22 C          63.5374   85.3258   15.7989 C.ar    1  UNL1        0.0358
     23 C          63.3177   83.9450   15.2553 C.ar    1  UNL1        0.0190
     24 C          63.1838   83.7338   13.7763 C.ar    1  UNL1        0.0675
     25 C          63.2696   84.9033   12.8409 C.ar    1  UNL1        0.1147
     26 N          63.4893   86.2840   13.3845 N.ar    1  UNL1       -0.2277
     27 N          62.9641   82.3532   13.2327 N.pl3   1  UNL1       -0.3035
     28 C          62.3604   81.2915   14.1036 C.3     1  UNL1        0.1079
     29 C          62.1407   79.9109   13.5600 C.3     1  UNL1        0.0903
     30 N          62.5248   79.5919   12.1455 N.3     1  UNL1       -0.2946
     31 C          63.1286   80.6535   11.2746 C.3     1  UNL1        0.0903
     32 C          63.3482   82.0341   11.8182 C.3     1  UNL1        0.1079
     33 H          61.6780   79.2719   11.6755 H       1  UNL1        0.1233
@<TRIPOS>BOND
     1    15    14    1
     2    15    16    1
     3    16    17    1
     4    15     1    1
     5     1     2   ar
     6     2     3   ar
     7     3     4   ar
     8     4     5   ar
     9     5     6   ar
    10     6     7   ar
    11     7     8   ar
    12     8     9   ar
    13     9    10   ar
    14    10    11   ar
    15    11    19    1
    16    19    21    1
    17    21    22   ar
    18    22    23   ar
    19    23    24   ar
    20    24    27    1
    21    27    28    1
    22    28    29    1
    23    29    30    1
    24    30    31    1
    25    31    32    1
    26    24    25   ar
    27    25    26   ar
    28    11    12   ar
    29    12    13   ar
    30    13     1   ar
    31     7     2   ar
    32    13     8   ar
    33    26    21   ar
    34    32    27    1
    35    17    18    1
    36    19    20    1
    37    30    33    1
