@<TRIPOS>MOLECULE
*****
 36 39 0 0 0
SMALL
GASTEIGER

@<TRIPOS>ATOM
      1 N          61.6900   87.4374   11.3322 N.ar    1  UNL1       -0.2459
      2 C          61.9605   88.3519   10.1744 C.ar    1  UNL1        0.1116
      3 C          60.6412   88.8168    9.6328 C.ar    1  UNL1        0.0908
      4 C          59.5553   88.1895   10.4558 C.ar    1  UNL1        0.1363
      5 N          60.2035   87.3370   11.5061 N.ar    1  UNL1       -0.1661
      6 N          60.4427   89.7457    8.4719 N.am    1  UNL1       -0.2753
      7 C          59.5805   89.3295    7.3172 C.2     1  UNL1        0.2870
      8 O          58.9168   87.9843    7.3234 O.2     1  UNL1       -0.2664
      9 H          60.8783   90.6286    8.4678 H       1  UNL1        0.1554
     10 C          59.3820   90.2584    6.1563 C.ar    1  UNL1        0.2302
     11 C          60.4674   90.8710    5.3217 C.ar    1  UNL1        0.0689
     12 C          59.8194   91.7291    4.2758 C.ar    1  UNL1        0.1407
     13 N          58.3335   91.6468    4.4641 N.ar    1  UNL1       -0.0752
     14 O          58.0631   90.7379    5.6264 O.2     1  UNL1       -0.3487
     15 C          60.5321   92.5290    3.2259 C.ar    1  UNL1        0.1022
     16 C          61.9532   92.2043    2.8718 C.ar    1  UNL1        0.0208
     17 C          62.6660   93.0042    1.8220 C.ar    1  UNL1        0.0032
     18 C          61.9578   94.1287    1.1263 C.ar    1  UNL1        0.0207
     19 C          60.5368   94.4532    1.4804 C.ar    1  UNL1        0.0989
     20 N          59.8239   93.6534    2.5302 N.ar    1  UNL1       -0.2422
     21 C          63.8214   87.5387   12.8143 C.3     1  UNL1        0.0312
     22 C          62.7243   86.7449   12.1692 C.3     1  UNL1        0.1274
     23 C          62.6616   85.2585   12.3610 C.ar    1  UNL1        0.0038
     24 C          62.5444   84.6847   13.7419 C.ar    1  UNL1       -0.0025
     25 C          62.4816   83.1984   13.9337 C.ar    1  UNL1        0.0036
     26 C          62.5361   82.2858   12.7445 C.ar    1  UNL1        0.0714
     27 C          62.6532   82.8595   11.3636 C.ar    1  UNL1        0.0074
     28 C          62.7160   84.3459   11.1718 C.ar    1  UNL1        0.0692
     29 C          62.4733   80.7994   12.9363 C.3     1  UNL1        0.4186
     30 F          62.4105   79.3131   13.1282 F       1  UNL1       -0.1659
     31 F          62.8831   80.5977   11.5076 F       1  UNL1       -0.1659
     32 F          62.0635   81.0011   14.3650 F       1  UNL1       -0.1659
     33 C          62.8332   84.9197    9.7908 C.3     1  UNL1        0.4183
     34 F          62.9504   85.4934    8.4099 F       1  UNL1       -0.1659
     35 F          64.3024   84.6176    9.7900 F       1  UNL1       -0.1659
     36 F          61.3639   85.2218    9.7916 F       1  UNL1       -0.1659
@<TRIPOS>BOND
     1    22    21    1
     2    22    23    1
     3    23    24   ar
     4    24    25   ar
     5    25    26   ar
     6    26    29    1
     7    29    30    1
     8    29    31    1
     9    29    32    1
    10    26    27   ar
    11    27    28   ar
    12    28    33    1
    13    33    34    1
    14    33    35    1
    15    33    36    1
    16    22     1    1
    17     1     2   ar
    18     2     3   ar
    19     3     6    1
    20     6     7   am
    21     7     8    2
    22     7    10    1
    23    10    11   ar
    24    11    12   ar
    25    12    15    1
    26    15    16   ar
    27    16    17   ar
    28    17    18   ar
    29    18    19   ar
    30    19    20   ar
    31    12    13   ar
    32    13    14   ar
    33     3     4   ar
    34     4     5   ar
    35    28    23   ar
    36     5     1   ar
    37    14    10   ar
    38    20    15   ar
    39     6     9    1
@<TRIPOS>MOLECULE
*****
 36 39 0 0 0
SMALL
GASTEIGER

@<TRIPOS>ATOM
      1 N          64.4682   90.4371   15.4206 N.ar    1  UNL1       -0.2459
      2 C          64.5973   89.1934   14.5920 C.ar    1  UNL1        0.1116
      3 C          63.6915   88.1506   15.1770 C.ar    1  UNL1        0.0908
      4 C          63.0026   88.7498   16.3671 C.ar    1  UNL1        0.1363
      5 N          63.4826   90.1629   16.5176 N.ar    1  UNL1       -0.1661
      6 N          63.5071   86.7538   14.6622 N.am    1  UNL1       -0.2753
      7 C          63.3465   85.6148   15.6249 C.2     1  UNL1        0.2870
      8 O          63.3703   85.8726   17.1024 O.2     1  UNL1       -0.2664
      9 H          63.4915   86.5846   13.6925 H       1  UNL1        0.1554
     10 C          63.1621   84.2180   15.1101 C.ar    1  UNL1        0.2302
     11 C          63.2727   83.7842   13.6785 C.ar    1  UNL1        0.0689
     12 C          63.0136   82.3079   13.6202 C.ar    1  UNL1        0.1407
     13 N          62.7429   81.8293   15.0158 N.ar    1  UNL1       -0.0752
     14 O          62.8346   83.0099   15.9367 O.2     1  UNL1       -0.3487
     15 C          63.0236   81.4592   12.3834 C.ar    1  UNL1        0.1022
     16 C          63.4460   82.0507   11.0712 C.ar    1  UNL1        0.0208
     17 C          63.4560   81.2021    9.8345 C.ar    1  UNL1        0.0032
     18 C          63.0435   79.7618    9.9098 C.ar    1  UNL1        0.0207
     19 C          62.6211   79.1703   11.2219 C.ar    1  UNL1        0.0989
     20 N          62.6111   80.0190   12.4588 N.ar    1  UNL1       -0.2422
     21 C          65.3259   92.7238   16.3067 C.3     1  UNL1        0.0312
     22 C          65.1967   91.7283   15.1922 C.3     1  UNL1        0.1274
     23 C          65.7961   92.0239   13.8493 C.ar    1  UNL1        0.0038
     24 C          64.9224   92.0648   12.6307 C.ar    1  UNL1       -0.0025
     25 C          65.5218   92.3604   11.2878 C.ar    1  UNL1        0.0036
     26 C          66.9948   92.6150   11.1635 C.ar    1  UNL1        0.0714
     27 C          67.8684   92.5740   12.3821 C.ar    1  UNL1        0.0074
     28 C          67.2691   92.2785   13.7250 C.ar    1  UNL1        0.0692
     29 C          67.5941   92.9106    9.8206 C.3     1  UNL1        0.4186
     30 F          68.1935   93.2062    8.4777 F       1  UNL1       -0.1659
     31 F          68.0408   91.4833    9.7057 F       1  UNL1       -0.1659
     32 F          67.1475   94.3379    9.9354 F       1  UNL1       -0.1659
     33 C          68.1427   92.2375   14.9437 C.3     1  UNL1        0.4183
     34 F          69.0163   92.1964   16.1623 F       1  UNL1       -0.1659
     35 F          68.0227   90.7427   14.9794 F       1  UNL1       -0.1659
     36 F          68.2627   93.7322   14.9080 F       1  UNL1       -0.1659
@<TRIPOS>BOND
     1    22    21    1
     2    22    23    1
     3    23    24   ar
     4    24    25   ar
     5    25    26   ar
     6    26    29    1
     7    29    30    1
     8    29    31    1
     9    29    32    1
    10    26    27   ar
    11    27    28   ar
    12    28    33    1
    13    33    34    1
    14    33    35    1
    15    33    36    1
    16    22     1    1
    17     1     2   ar
    18     2     3   ar
    19     3     6    1
    20     6     7   am
    21     7     8    2
    22     7    10    1
    23    10    11   ar
    24    11    12   ar
    25    12    15    1
    26    15    16   ar
    27    16    17   ar
    28    17    18   ar
    29    18    19   ar
    30    19    20   ar
    31    12    13   ar
    32    13    14   ar
    33     3     4   ar
    34     4     5   ar
    35    28    23   ar
    36     5     1   ar
    37    14    10   ar
    38    20    15   ar
    39     6     9    1
@<TRIPOS>MOLECULE
*****
 36 39 0 0 0
SMALL
GASTEIGER

@<TRIPOS>ATOM
      1 N          61.7449   87.3967   11.3603 N.ar    1  UNL1       -0.2459
      2 C          61.9911   88.2163   10.1285 C.ar    1  UNL1        0.1116
      3 C          60.6938   88.8552    9.7298 C.ar    1  UNL1        0.0908
      4 C          59.6458   88.4303   10.7152 C.ar    1  UNL1        0.1363
      5 N          60.2954   87.5289   11.7230 N.ar    1  UNL1       -0.1661
      6 N          60.4818   89.7600    8.5523 N.am    1  UNL1       -0.2753
      7 C          59.6038   89.3214    7.4180 C.2     1  UNL1        0.2870
      8 O          58.9379   87.9780    7.4610 O.2     1  UNL1       -0.2664
      9 H          60.9188   90.6417    8.5241 H       1  UNL1        0.1554
     10 C          59.3918   90.2262    6.2405 C.ar    1  UNL1        0.2302
     11 C          60.4684   90.8488    5.4019 C.ar    1  UNL1        0.0689
     12 C          59.8078   91.6746    4.3381 C.ar    1  UNL1        0.1407
     13 N          58.3230   91.5624    4.5192 N.ar    1  UNL1       -0.0752
     14 O          58.0659   90.6672    5.6950 O.2     1  UNL1       -0.3487
     15 C          60.5090   92.4726    3.2790 C.ar    1  UNL1        0.1022
     16 C          61.9362   92.1676    2.9318 C.ar    1  UNL1        0.0208
     17 C          62.6374   92.9655    1.8729 C.ar    1  UNL1        0.0032
     18 C          61.9115   94.0685    1.1609 C.ar    1  UNL1        0.0207
     19 C          60.4845   94.3735    1.5081 C.ar    1  UNL1        0.0989
     20 N          59.7832   93.5755    2.5672 N.ar    1  UNL1       -0.2422
     21 C          63.7648   87.2694   12.9893 C.3     1  UNL1        0.0312
     22 C          62.7684   86.5870   12.0997 C.3     1  UNL1        0.1274
     23 C          62.7955   85.0947   11.9495 C.ar    1  UNL1        0.0038
     24 C          62.6458   84.4748   10.5919 C.ar    1  UNL1       -0.0025
     25 C          62.6729   82.9826   10.4417 C.ar    1  UNL1        0.0036
     26 C          62.8498   82.1103   11.6491 C.ar    1  UNL1        0.0714
     27 C          62.9996   82.7303   13.0067 C.ar    1  UNL1        0.0074
     28 C          62.9725   84.2224   13.1569 C.ar    1  UNL1        0.0692
     29 C          62.8770   80.6181   11.4988 C.3     1  UNL1        0.4186
     30 F          62.9041   79.1259   11.3486 F       1  UNL1       -0.1659
     31 F          62.5747   80.4654   12.9601 F       1  UNL1       -0.1659
     32 F          63.1792   80.7707   10.0376 F       1  UNL1       -0.1659
     33 C          63.1223   84.8425   14.5146 C.3     1  UNL1        0.4183
     34 F          63.2721   85.4625   15.8722 F       1  UNL1       -0.1659
     35 F          64.6101   84.8872   14.3299 F       1  UNL1       -0.1659
     36 F          61.6344   84.7977   14.6992 F       1  UNL1       -0.1659
@<TRIPOS>BOND
     1    22    21    1
     2    22    23    1
     3    23    24   ar
     4    24    25   ar
     5    25    26   ar
     6    26    29    1
     7    29    30    1
     8    29    31    1
     9    29    32    1
    10    26    27   ar
    11    27    28   ar
    12    28    33    1
    13    33    34    1
    14    33    35    1
    15    33    36    1
    16    22     1    1
    17     1     2   ar
    18     2     3   ar
    19     3     6    1
    20     6     7   am
    21     7     8    2
    22     7    10    1
    23    10    11   ar
    24    11    12   ar
    25    12    15    1
    26    15    16   ar
    27    16    17   ar
    28    17    18   ar
    29    18    19   ar
    30    19    20   ar
    31    12    13   ar
    32    13    14   ar
    33     3     4   ar
    34     4     5   ar
    35    28    23   ar
    36     5     1   ar
    37    14    10   ar
    38    20    15   ar
    39     6     9    1
@<TRIPOS>MOLECULE
*****
 36 39 0 0 0
SMALL
GASTEIGER

@<TRIPOS>ATOM
      1 N          63.9507   87.0062   13.5967 N.ar    1  UNL1       -0.2459
      2 C          63.1324   86.9272   12.3421 C.ar    1  UNL1        0.1116
      3 C          62.7716   88.3252   11.9351 C.ar    1  UNL1        0.0908
      4 C          63.3671   89.2682   12.9382 C.ar    1  UNL1        0.1363
      5 N          64.0958   88.4530   13.9651 N.ar    1  UNL1       -0.1661
      6 N          61.9583   88.7122   10.7357 N.am    1  UNL1       -0.2753
      7 C          61.0181   87.7214   10.1157 C.2     1  UNL1        0.2870
      8 O          60.8912   86.3437   10.6952 O.2     1  UNL1       -0.2664
      9 H          62.0415   89.6164   10.3554 H       1  UNL1        0.1554
     10 C          60.2047   88.1084    8.9163 C.ar    1  UNL1        0.2302
     11 C          60.4086   89.3295    8.0694 C.ar    1  UNL1        0.0689
     12 C          59.3745   89.3180    6.9828 C.ar    1  UNL1        0.1407
     13 N          58.5316   88.0897    7.1582 N.ar    1  UNL1       -0.0752
     14 O          59.0447   87.3420    8.3532 O.2     1  UNL1       -0.3487
     15 C          59.2119   90.3530    5.9094 C.ar    1  UNL1        0.1022
     16 C          57.8425   90.8394    5.5378 C.ar    1  UNL1        0.0208
     17 C          57.6799   91.8744    4.4644 C.ar    1  UNL1        0.0032
     18 C          58.8867   92.4231    3.7625 C.ar    1  UNL1        0.0207
     19 C          60.2561   91.9367    4.1341 C.ar    1  UNL1        0.0989
     20 N          60.4188   90.9016    5.2076 N.ar    1  UNL1       -0.2422
     21 C          65.6921   86.0459   15.2686 C.3     1  UNL1        0.0312
     22 C          64.5235   85.8427   14.3505 C.3     1  UNL1        0.1274
     23 C          63.9275   84.4760   14.1862 C.ar    1  UNL1        0.0038
     24 C          64.4531   83.5508   13.1290 C.ar    1  UNL1       -0.0025
     25 C          63.8571   82.1841   12.9648 C.ar    1  UNL1        0.0036
     26 C          62.7356   81.7427   13.8577 C.ar    1  UNL1        0.0714
     27 C          62.2100   82.6679   14.9149 C.ar    1  UNL1        0.0074
     28 C          62.8060   84.0346   15.0791 C.ar    1  UNL1        0.0692
     29 C          62.1396   80.3759   13.6934 C.3     1  UNL1        0.4186
     30 F          61.5436   79.0093   13.5291 F       1  UNL1       -0.1659
     31 F          63.2490   80.0050   12.7545 F       1  UNL1       -0.1659
     32 F          61.0302   80.7469   14.6323 F       1  UNL1       -0.1659
     33 C          62.2804   84.9599   16.1363 C.3     1  UNL1        0.4183
     34 F          61.7549   85.8851   17.1935 F       1  UNL1       -0.1659
     35 F          63.5845   84.8613   16.8708 F       1  UNL1       -0.1659
     36 F          60.9763   85.0584   15.4019 F       1  UNL1       -0.1659
@<TRIPOS>BOND
     1    22    21    1
     2    22    23    1
     3    23    24   ar
     4    24    25   ar
     5    25    26   ar
     6    26    29    1
     7    29    30    1
     8    29    31    1
     9    29    32    1
    10    26    27   ar
    11    27    28   ar
    12    28    33    1
    13    33    34    1
    14    33    35    1
    15    33    36    1
    16    22     1    1
    17     1     2   ar
    18     2     3   ar
    19     3     6    1
    20     6     7   am
    21     7     8    2
    22     7    10    1
    23    10    11   ar
    24    11    12   ar
    25    12    15    1
    26    15    16   ar
    27    16    17   ar
    28    17    18   ar
    29    18    19   ar
    30    19    20   ar
    31    12    13   ar
    32    13    14   ar
    33     3     4   ar
    34     4     5   ar
    35    28    23   ar
    36     5     1   ar
    37    14    10   ar
    38    20    15   ar
    39     6     9    1
@<TRIPOS>MOLECULE
*****
 36 39 0 0 0
SMALL
GASTEIGER

@<TRIPOS>ATOM
      1 N          63.7273   86.1265   13.2192 N.ar    1  UNL1       -0.2459
      2 C          62.8220   86.2205   12.0268 C.ar    1  UNL1        0.1116
      3 C          62.5894   87.6732   11.7347 C.ar    1  UNL1        0.0908
      4 C          63.3509   88.4772   12.7466 C.ar    1  UNL1        0.1363
      5 N          64.0541   87.5212   13.6640 N.ar    1  UNL1       -0.1661
      6 N          61.7438   88.2252   10.6255 N.am    1  UNL1       -0.2753
      7 C          60.8951   87.3041    9.8001 C.2     1  UNL1        0.2870
      8 O          60.8919   85.8312   10.0839 O.2     1  UNL1       -0.2664
      9 H          61.7459   89.1919   10.4393 H       1  UNL1        0.1554
     10 C          60.0495   87.8560    8.6909 C.ar    1  UNL1        0.2302
     11 C          60.3671   89.0610    7.8559 C.ar    1  UNL1        0.0689
     12 C          59.2517   89.2495    6.8709 C.ar    1  UNL1        0.1407
     13 N          58.2446   88.1611    7.0971 N.ar    1  UNL1       -0.0752
     14 O          58.7376   87.2998    8.2220 O.2     1  UNL1       -0.3487
     15 C          59.1595   90.3357    5.8406 C.ar    1  UNL1        0.1022
     16 C          60.4042   90.8513    5.1808 C.ar    1  UNL1        0.0208
     17 C          60.3120   91.9374    4.1506 C.ar    1  UNL1        0.0032
     18 C          58.9753   92.5083    3.7799 C.ar    1  UNL1        0.0207
     19 C          57.7307   91.9927    4.4396 C.ar    1  UNL1        0.0989
     20 N          57.8228   90.9065    5.4700 N.ar    1  UNL1       -0.2422
     21 C          65.5873   84.8112   14.4683 C.3     1  UNL1        0.0312
     22 C          64.2192   84.8602   13.8551 C.3     1  UNL1        0.1274
     23 C          63.3431   83.6428   13.8778 C.ar    1  UNL1        0.0038
     24 C          62.4805   83.3617   15.0723 C.ar    1  UNL1       -0.0025
     25 C          61.6044   82.1444   15.0949 C.ar    1  UNL1        0.0036
     26 C          61.5909   81.2081   13.9231 C.ar    1  UNL1        0.0714
     27 C          62.4536   81.4892   12.7286 C.ar    1  UNL1        0.0074
     28 C          63.3296   82.7065   12.7059 C.ar    1  UNL1        0.0692
     29 C          60.7148   79.9908   13.9458 C.3     1  UNL1        0.4186
     30 F          59.8387   78.7734   13.9685 F       1  UNL1       -0.1659
     31 F          59.5405   80.8429   14.3263 F       1  UNL1       -0.1659
     32 F          61.8891   79.1386   13.5653 F       1  UNL1       -0.1659
     33 C          64.1923   82.9876   11.5114 C.3     1  UNL1        0.4183
     34 F          65.0550   83.2686   10.3170 F       1  UNL1       -0.1659
     35 F          65.3517   82.3226   12.1923 F       1  UNL1       -0.1659
     36 F          63.0330   83.6526   10.8306 F       1  UNL1       -0.1659
@<TRIPOS>BOND
     1    22    21    1
     2    22    23    1
     3    23    24   ar
     4    24    25   ar
     5    25    26   ar
     6    26    29    1
     7    29    30    1
     8    29    31    1
     9    29    32    1
    10    26    27   ar
    11    27    28   ar
    12    28    33    1
    13    33    34    1
    14    33    35    1
    15    33    36    1
    16    22     1    1
    17     1     2   ar
    18     2     3   ar
    19     3     6    1
    20     6     7   am
    21     7     8    2
    22     7    10    1
    23    10    11   ar
    24    11    12   ar
    25    12    15    1
    26    15    16   ar
    27    16    17   ar
    28    17    18   ar
    29    18    19   ar
    30    19    20   ar
    31    12    13   ar
    32    13    14   ar
    33     3     4   ar
    34     4     5   ar
    35    28    23   ar
    36     5     1   ar
    37    14    10   ar
    38    20    15   ar
    39     6     9    1
@<TRIPOS>MOLECULE
*****
 36 39 0 0 0
SMALL
GASTEIGER

@<TRIPOS>ATOM
      1 N          63.1330   90.5376   11.3718 N.ar    1  UNL1       -0.2459
      2 C          63.4968   89.1016   11.6078 C.ar    1  UNL1        0.1116
      3 C          62.2369   88.2894   11.5543 C.ar    1  UNL1        0.0908
      4 C          61.0944   89.2233   11.2853 C.ar    1  UNL1        0.1363
      5 N          61.6483   90.6128   11.1725 N.ar    1  UNL1       -0.1661
      6 N          62.1370   86.8040   11.7377 N.am    1  UNL1       -0.2753
      7 C          62.9377   86.1251   12.8092 C.2     1  UNL1        0.2870
      8 O          63.8382   86.9316   13.6973 O.2     1  UNL1       -0.2664
      9 H          61.5460   86.2747   11.1549 H       1  UNL1        0.1554
     10 C          62.8378   84.6397   12.9926 C.ar    1  UNL1        0.2302
     11 C          62.8922   83.6111   11.9022 C.ar    1  UNL1        0.0689
     12 C          62.7540   82.2578   12.5343 C.ar    1  UNL1        0.1407
     13 N          62.6143   82.4501   14.0154 N.ar    1  UNL1       -0.0752
     14 O          62.6661   83.9222   14.2987 O.2     1  UNL1       -0.3487
     15 C          62.7554   80.9431   11.8122 C.ar    1  UNL1        0.1022
     16 C          63.0015   80.9001   10.3330 C.ar    1  UNL1        0.0208
     17 C          63.0029   79.5855    9.6109 C.ar    1  UNL1        0.0032
     18 C          62.7581   78.3137   10.3677 C.ar    1  UNL1        0.0207
     19 C          62.5120   78.3567   11.8468 C.ar    1  UNL1        0.0989
     20 N          62.5107   79.6714   12.5690 N.ar    1  UNL1       -0.2422
     21 C          64.0105   92.6997   10.2294 C.3     1  UNL1        0.0312
     22 C          64.0866   91.6950   11.3406 C.3     1  UNL1        0.1274
     23 C          65.1163   91.8478   12.4207 C.ar    1  UNL1        0.0038
     24 C          64.8570   91.2895   13.7885 C.ar    1  UNL1       -0.0025
     25 C          65.8867   91.4422   14.8684 C.ar    1  UNL1        0.0036
     26 C          67.1757   92.1533   14.5806 C.ar    1  UNL1        0.0714
     27 C          67.4350   92.7117   13.2127 C.ar    1  UNL1        0.0074
     28 C          66.4053   92.5589   12.1328 C.ar    1  UNL1        0.0692
     29 C          68.2054   92.3061   15.6606 C.3     1  UNL1        0.4186
     30 F          69.2350   92.4588   16.7406 F       1  UNL1       -0.1659
     31 F          69.2941   92.2547   14.6300 F       1  UNL1       -0.1659
     32 F          67.1168   92.3575   16.6912 F       1  UNL1       -0.1659
     33 C          66.6646   93.1172   10.7649 C.3     1  UNL1        0.4183
     34 F          66.9238   93.6756    9.3970 F       1  UNL1       -0.1659
     35 F          66.1621   94.4565   11.2163 F       1  UNL1       -0.1659
     36 F          67.1670   91.7780   10.3134 F       1  UNL1       -0.1659
@<TRIPOS>BOND
     1    22    21    1
     2    22    23    1
     3    23    24   ar
     4    24    25   ar
     5    25    26   ar
     6    26    29    1
     7    29    30    1
     8    29    31    1
     9    29    32    1
    10    26    27   ar
    11    27    28   ar
    12    28    33    1
    13    33    34    1
    14    33    35    1
    15    33    36    1
    16    22     1    1
    17     1     2   ar
    18     2     3   ar
    19     3     6    1
    20     6     7   am
    21     7     8    2
    22     7    10    1
    23    10    11   ar
    24    11    12   ar
    25    12    15    1
    26    15    16   ar
    27    16    17   ar
    28    17    18   ar
    29    18    19   ar
    30    19    20   ar
    31    12    13   ar
    32    13    14   ar
    33     3     4   ar
    34     4     5   ar
    35    28    23   ar
    36     5     1   ar
    37    14    10   ar
    38    20    15   ar
    39     6     9    1
@<TRIPOS>MOLECULE
*****
 36 39 0 0 0
SMALL
GASTEIGER

@<TRIPOS>ATOM
      1 N          59.9320   89.1140    9.0840 N.ar    1  UNL1       -0.2459
      2 C          60.5710   90.0958    8.1471 C.ar    1  UNL1        0.1116
      3 C          60.0576   89.8193    6.7651 C.ar    1  UNL1        0.0908
      4 C          59.1014   88.6665    6.8478 C.ar    1  UNL1        0.1363
      5 N          59.0238   88.2307    8.2810 N.ar    1  UNL1       -0.1661
      6 N          60.4344   90.5646    5.5191 N.am    1  UNL1       -0.2753
      7 C          59.4371   91.4663    4.8540 C.2     1  UNL1        0.2870
      8 O          58.0630   91.6226    5.4350 O.2     1  UNL1       -0.2664
      9 H          61.3363   90.4620    5.1378 H       1  UNL1        0.1554
     10 C          59.8139   92.2116    3.6080 C.ar    1  UNL1        0.2302
     11 C          61.2080   92.4344    3.1014 C.ar    1  UNL1        0.0689
     12 C          61.1183   93.2255    1.8301 C.ar    1  UNL1        0.1407
     13 N          59.6688   93.4917    1.5511 N.ar    1  UNL1       -0.0752
     14 O          58.8625   92.8651    2.6499 O.2     1  UNL1       -0.3487
     15 C          62.2752   93.6720    0.9861 C.ar    1  UNL1        0.1022
     16 C          63.6736   93.2813    1.3631 C.ar    1  UNL1        0.0208
     17 C          64.8304   93.7278    0.5192 C.ar    1  UNL1        0.0032
     18 C          64.5890   94.5650   -0.7018 C.ar    1  UNL1        0.0207
     19 C          63.1907   94.9557   -1.0788 C.ar    1  UNL1        0.0989
     20 N          62.0338   94.5092   -0.2348 N.ar    1  UNL1       -0.2422
     21 C          59.4509   89.9750   11.4876 C.3     1  UNL1        0.0312
     22 C          60.1611   89.0302   10.5641 C.3     1  UNL1        0.1274
     23 C          61.1004   88.0016   11.1206 C.ar    1  UNL1        0.0038
     24 C          60.7692   86.5432   11.0055 C.ar    1  UNL1       -0.0025
     25 C          61.7085   85.5146   11.5620 C.ar    1  UNL1        0.0036
     26 C          62.9790   85.9445   12.2336 C.ar    1  UNL1        0.0714
     27 C          63.3102   87.4029   12.3487 C.ar    1  UNL1        0.0074
     28 C          62.3709   88.4314   11.7922 C.ar    1  UNL1        0.0692
     29 C          63.9184   84.9158   12.7901 C.3     1  UNL1        0.4186
     30 F          64.8576   83.8872   13.3465 F       1  UNL1       -0.1659
     31 F          64.1250   85.7642   14.0096 F       1  UNL1       -0.1659
     32 F          63.7117   84.0674   11.5705 F       1  UNL1       -0.1659
     33 C          62.7021   89.8899   11.9072 C.3     1  UNL1        0.4183
     34 F          63.0333   91.3484   12.0223 F       1  UNL1       -0.1659
     35 F          63.1597   89.8987   10.4788 F       1  UNL1       -0.1659
     36 F          62.2445   89.8812   13.3357 F       1  UNL1       -0.1659
@<TRIPOS>BOND
     1    22    21    1
     2    22    23    1
     3    23    24   ar
     4    24    25   ar
     5    25    26   ar
     6    26    29    1
     7    29    30    1
     8    29    31    1
     9    29    32    1
    10    26    27   ar
    11    27    28   ar
    12    28    33    1
    13    33    34    1
    14    33    35    1
    15    33    36    1
    16    22     1    1
    17     1     2   ar
    18     2     3   ar
    19     3     6    1
    20     6     7   am
    21     7     8    2
    22     7    10    1
    23    10    11   ar
    24    11    12   ar
    25    12    15    1
    26    15    16   ar
    27    16    17   ar
    28    17    18   ar
    29    18    19   ar
    30    19    20   ar
    31    12    13   ar
    32    13    14   ar
    33     3     4   ar
    34     4     5   ar
    35    28    23   ar
    36     5     1   ar
    37    14    10   ar
    38    20    15   ar
    39     6     9    1
@<TRIPOS>MOLECULE
*****
 36 39 0 0 0
SMALL
GASTEIGER

@<TRIPOS>ATOM
      1 N          73.2423   75.3084   15.3920 N.ar    1  UNL1       -0.2459
      2 C          73.1723   75.9344   14.0307 C.ar    1  UNL1        0.1116
      3 C          73.4137   77.4068   14.1846 C.ar    1  UNL1        0.0908
      4 C          73.6329   77.6908   15.6410 C.ar    1  UNL1        0.1363
      5 N          73.5270   76.3939   16.3872 N.ar    1  UNL1       -0.1661
      6 N          73.4325   78.4177   13.0765 N.am    1  UNL1       -0.2753
      7 C          72.1866   78.6870   12.2858 C.2     1  UNL1        0.2870
      8 O          70.9220   77.9454   12.6030 O.2     1  UNL1       -0.2664
      9 H          74.2625   78.9045   12.8683 H       1  UNL1        0.1554
     10 C          72.2055   79.6979   11.1778 C.ar    1  UNL1        0.2302
     11 C          72.3636   79.4010    9.7160 C.ar    1  UNL1        0.0689
     12 C          72.3253   80.7028    8.9718 C.ar    1  UNL1        0.1407
     13 N          72.1435   81.8043    9.9736 N.ar    1  UNL1       -0.0752
     14 O          72.0694   81.1832   11.3371 O.2     1  UNL1       -0.3487
     15 C          72.4474   80.8733    7.4865 C.ar    1  UNL1        0.1022
     16 C          72.7139   79.6822    6.6143 C.ar    1  UNL1        0.0208
     17 C          72.8360   79.8526    5.1291 C.ar    1  UNL1        0.0032
     18 C          72.6916   81.2140    4.5159 C.ar    1  UNL1        0.0207
     19 C          72.4252   82.4049    5.3881 C.ar    1  UNL1        0.0989
     20 N          72.3030   82.2346    6.8734 N.ar    1  UNL1       -0.2422
     21 C          73.6327   73.2777   16.9649 C.3     1  UNL1        0.0312
     22 C          73.0598   73.8524   15.7034 C.3     1  UNL1        0.1274
     23 C          72.3043   72.9712   14.7532 C.ar    1  UNL1        0.0038
     24 C          73.0481   72.1196   13.7676 C.ar    1  UNL1       -0.0025
     25 C          72.2926   71.2384   12.8175 C.ar    1  UNL1        0.0036
     26 C          70.7933   71.2090   12.8529 C.ar    1  UNL1        0.0714
     27 C          70.0495   72.0607   13.8385 C.ar    1  UNL1        0.0074
     28 C          70.8050   72.9418   14.7886 C.ar    1  UNL1        0.0692
     29 C          70.0378   70.3278   11.9027 C.3     1  UNL1        0.4186
     30 F          69.2823   69.4466   10.9526 F       1  UNL1       -0.1659
     31 F          70.7137   70.9982   10.7436 F       1  UNL1       -0.1659
     32 F          69.3619   69.6574   13.0619 F       1  UNL1       -0.1659
     33 C          70.0612   73.7936   15.7742 C.3     1  UNL1        0.4183
     34 F          69.3174   74.6453   16.7597 F       1  UNL1       -0.1659
     35 F          70.1354   74.9543   14.8270 F       1  UNL1       -0.1659
     36 F          69.9870   72.6328   16.7214 F       1  UNL1       -0.1659
@<TRIPOS>BOND
     1    22    21    1
     2    22    23    1
     3    23    24   ar
     4    24    25   ar
     5    25    26   ar
     6    26    29    1
     7    29    30    1
     8    29    31    1
     9    29    32    1
    10    26    27   ar
    11    27    28   ar
    12    28    33    1
    13    33    34    1
    14    33    35    1
    15    33    36    1
    16    22     1    1
    17     1     2   ar
    18     2     3   ar
    19     3     6    1
    20     6     7   am
    21     7     8    2
    22     7    10    1
    23    10    11   ar
    24    11    12   ar
    25    12    15    1
    26    15    16   ar
    27    16    17   ar
    28    17    18   ar
    29    18    19   ar
    30    19    20   ar
    31    12    13   ar
    32    13    14   ar
    33     3     4   ar
    34     4     5   ar
    35    28    23   ar
    36     5     1   ar
    37    14    10   ar
    38    20    15   ar
    39     6     9    1
@<TRIPOS>MOLECULE
*****
 36 39 0 0 0
SMALL
GASTEIGER

@<TRIPOS>ATOM
      1 N          64.4704   90.6896   15.5178 N.ar    1  UNL1       -0.2459
      2 C          64.8244   89.3296   14.9933 C.ar    1  UNL1        0.1116
      3 C          63.8521   88.3432   15.5691 C.ar    1  UNL1        0.0908
      4 C          62.8971   89.0935   16.4495 C.ar    1  UNL1        0.1363
      5 N          63.2792   90.5437   16.4177 N.ar    1  UNL1       -0.1661
      6 N          63.8374   86.8658   15.3100 N.am    1  UNL1       -0.2753
      7 C          63.6633   86.3513   13.9119 C.2     1  UNL1        0.2870
      8 O          63.5040   87.3141   12.7727 O.2     1  UNL1       -0.2664
      9 H          63.9419   86.2339   16.0577 H       1  UNL1        0.1554
     10 C          63.6486   84.8739   13.6528 C.ar    1  UNL1        0.2302
     11 C          62.5082   83.9408   13.9335 C.ar    1  UNL1        0.0689
     12 C          62.9265   82.5605   13.5217 C.ar    1  UNL1        0.1407
     13 N          64.3255   82.6404   12.9865 N.ar    1  UNL1       -0.0752
     14 O          64.7718   84.0702   13.0675 O.2     1  UNL1       -0.3487
     15 C          62.0923   81.3183   13.6267 C.ar    1  UNL1        0.1022
     16 C          60.6899   81.3988   14.1531 C.ar    1  UNL1        0.0208
     17 C          59.8558   80.1567   14.2581 C.ar    1  UNL1        0.0032
     18 C          60.4238   78.8339   13.8367 C.ar    1  UNL1        0.0207
     19 C          61.8261   78.7533   13.3103 C.ar    1  UNL1        0.0989
     20 N          62.6604   79.9955   13.2053 N.ar    1  UNL1       -0.2422
     21 C          65.2858   93.0498   16.2349 C.3     1  UNL1        0.0312
     22 C          65.1824   91.9706   15.1984 C.3     1  UNL1        0.1274
     23 C          65.7911   92.1724   13.8423 C.ar    1  UNL1        0.0038
     24 C          64.9127   92.2383   12.6282 C.ar    1  UNL1       -0.0025
     25 C          65.5214   92.4400   11.2722 C.ar    1  UNL1        0.0036
     26 C          67.0085   92.5758   11.1303 C.ar    1  UNL1        0.0714
     27 C          67.8869   92.5099   12.3444 C.ar    1  UNL1        0.0074
     28 C          67.2782   92.3082   13.7004 C.ar    1  UNL1        0.0692
     29 C          67.6172   92.7776    9.7742 C.3     1  UNL1        0.4186
     30 F          68.2258   92.9794    8.4182 F       1  UNL1       -0.1659
     31 F          68.1041   91.3589    9.7817 F       1  UNL1       -0.1659
     32 F          67.1303   94.1963    9.7668 F       1  UNL1       -0.1659
     33 C          68.1566   92.2423   14.9146 C.3     1  UNL1        0.4183
     34 F          69.0349   92.1764   16.1287 F       1  UNL1       -0.1659
     35 F          68.3170   93.7332   14.8794 F       1  UNL1       -0.1659
     36 F          67.9962   90.7513   14.9497 F       1  UNL1       -0.1659
@<TRIPOS>BOND
     1    22    21    1
     2    22    23    1
     3    23    24   ar
     4    24    25   ar
     5    25    26   ar
     6    26    29    1
     7    29    30    1
     8    29    31    1
     9    29    32    1
    10    26    27   ar
    11    27    28   ar
    12    28    33    1
    13    33    34    1
    14    33    35    1
    15    33    36    1
    16    22     1    1
    17     1     2   ar
    18     2     3   ar
    19     3     6    1
    20     6     7   am
    21     7     8    2
    22     7    10    1
    23    10    11   ar
    24    11    12   ar
    25    12    15    1
    26    15    16   ar
    27    16    17   ar
    28    17    18   ar
    29    18    19   ar
    30    19    20   ar
    31    12    13   ar
    32    13    14   ar
    33     3     4   ar
    34     4     5   ar
    35    28    23   ar
    36     5     1   ar
    37    14    10   ar
    38    20    15   ar
    39     6     9    1
