@<TRIPOS>MOLECULE
*****
 41 45 0 0 0
SMALL
GASTEIGER

@<TRIPOS>ATOM
      1 C          64.0766   90.4371   14.2302 C.ar    1  UNL1        0.0383
      2 C          65.4332   91.0762   14.1941 C.ar    1  UNL1        0.0433
      3 N          65.6494   91.6273   12.8159 N.ar    1  UNL1       -0.3260
      4 C          64.4265   91.3288   12.0002 C.ar    1  UNL1        0.0606
      5 C          64.0725   91.6318   10.5744 C.ar    1  UNL1        0.0203
      6 C          62.7463   91.1992   10.0228 C.ar    1  UNL1        0.0384
      7 C          61.7743   90.4636   10.8969 C.ar    1  UNL1        0.1392
      8 C          62.1283   90.1606   12.3226 C.ar    1  UNL1        0.0389
      9 C          63.4544   90.5932   12.8743 C.ar    1  UNL1        0.0256
     10 S          63.4519   89.7606   15.4143 S.3     1  UNL1       -0.1142
     11 C          63.0417   88.4139   17.0012 C.3     1  UNL1        0.0112
     12 C          63.6817   88.2971   15.6496 C.3     1  UNL1        0.0434
     13 C          64.3216   88.1803   14.2980 C.3     1  UNL1        0.0112
     14 C          63.9116   86.8336   15.8848 C.3     1  UNL1        0.0112
     15 C          66.4032   91.1510   15.3359 C.3     1  UNL1        0.0495
     16 C          67.4686   92.2068   15.3469 C.3     1  UNL1        0.0376
     17 C          66.4947   93.1834   15.9366 C.3     1  UNL1        0.0059
     18 C          68.4425   91.2302   14.7572 C.3     1  UNL1        0.0059
     19 C          68.5340   93.2626   15.3579 C.2     1  UNL1        0.0500
     20 O          68.3393   94.5163   16.1583 O.co2   1  UNL1       -0.5492
     21 O          69.7940   93.0649   14.5685 O.co2   1  UNL1       -0.5492
     22 C          66.8736   92.3500   12.3374 C.3     1  UNL1        0.1324
     23 C          66.7437   93.4765   11.3555 C.ar    1  UNL1        0.0004
     24 C          67.2636   93.3166    9.9576 C.ar    1  UNL1       -0.0015
     25 C          67.1337   94.4432    8.9757 C.ar    1  UNL1        0.0111
     26 C          66.4839   95.7295    9.3918 C.ar    1  UNL1        0.0577
     27 CL         66.3540   96.8560    8.4099 Cl      1  UNL1       -0.0822
     28 C          65.9640   95.8893   10.7897 C.ar    1  UNL1        0.0111
     29 C          66.0939   94.7628   11.7716 C.ar    1  UNL1       -0.0015
     30 O          60.4482   90.0311   10.3452 O.3     1  UNL1       -0.4690
     31 C          59.9555   88.6348   10.5852 C.3     1  UNL1        0.2508
     32 C          60.8740   87.4682   10.3716 C.ar    1  UNL1        0.1026
     33 C          61.3037   87.0962    8.9835 C.ar    1  UNL1        0.0184
     34 C          62.2222   85.9297    8.7699 C.ar    1  UNL1        0.0028
     35 C          62.7111   85.1352    9.9446 C.ar    1  UNL1        0.0177
     36 C          63.6295   83.9687    9.7310 C.ar    1  UNL1        0.0015
     37 C          64.1184   83.1742   10.9056 C.ar    1  UNL1        0.0001
     38 C          63.6888   83.5462   12.2938 C.ar    1  UNL1        0.0015
     39 C          62.7703   84.7127   12.5074 C.ar    1  UNL1        0.0191
     40 C          62.2814   85.5072   11.3327 C.ar    1  UNL1        0.0810
     41 N          61.3629   86.6737   11.5463 N.ar    1  UNL1       -0.2460
@<TRIPOS>UNITY_ATOM_ATTR
20 1
charge -1
@<TRIPOS>BOND
     1    11    12    1
     2    12    13    1
     3    12    14    1
     4    12    10    1
     5    10     1    1
     6     1     2   ar
     7     2    15    1
     8    15    16    1
     9    16    17    1
    10    16    18    1
    11    16    19    1
    12    19    20   ar
    13    19    21   ar
    14     2     3   ar
    15     3    22    1
    16    22    23    1
    17    23    24   ar
    18    24    25   ar
    19    25    26   ar
    20    26    27    1
    21    26    28   ar
    22    28    29   ar
    23     3     4   ar
    24     4     5   ar
    25     5     6   ar
    26     6     7   ar
    27     7    30    1
    28    30    31    1
    29    31    32    1
    30    32    33   ar
    31    33    34   ar
    32    34    35   ar
    33    35    36   ar
    34    36    37   ar
    35    37    38   ar
    36    38    39   ar
    37    39    40   ar
    38    40    41   ar
    39     7     8   ar
    40     8     9   ar
    41     9     1   ar
    42    29    23   ar
    43     9     4   ar
    44    41    32   ar
    45    40    35   ar
@<TRIPOS>MOLECULE
*****
 41 45 0 0 0
SMALL
GASTEIGER

@<TRIPOS>ATOM
      1 C          64.7898   92.4811   11.2906 C.ar    1  UNL1        0.0383
      2 C          65.2752   92.4952   12.7099 C.ar    1  UNL1        0.0433
      3 N          64.5500   91.4165   13.4585 N.ar    1  UNL1       -0.3260
      4 C          63.6164   90.7357   12.5019 C.ar    1  UNL1        0.0606
      5 C          62.6505   89.6017   12.6778 C.ar    1  UNL1        0.0203
      6 C          61.8328   89.1256   11.5138 C.ar    1  UNL1        0.0384
      7 C          61.9810   89.7836   10.1740 C.ar    1  UNL1        0.1392
      8 C          62.9470   90.9177    9.9982 C.ar    1  UNL1        0.0389
      9 C          63.7646   91.3937   11.1621 C.ar    1  UNL1        0.0256
     10 S          65.2490   93.3942   10.1926 S.3     1  UNL1       -0.1142
     11 C          66.5464   95.0721   10.1557 C.3     1  UNL1        0.0112
     12 C          66.7153   93.5960    9.9490 C.3     1  UNL1        0.0434
     13 C          66.8841   92.1199    9.7424 C.3     1  UNL1        0.0112
     14 C          68.1816   93.7977    9.7054 C.3     1  UNL1        0.0112
     15 C          66.3050   93.4249   13.2803 C.3     1  UNL1        0.0495
     16 C          67.4601   92.8749   14.0634 C.3     1  UNL1        0.0376
     17 C          67.1257   93.7931   15.2014 C.3     1  UNL1        0.0059
     18 C          67.7944   91.9567   12.9254 C.3     1  UNL1        0.0059
     19 C          68.6152   92.3249   14.8466 C.2     1  UNL1        0.0500
     20 O          68.4207   91.9012   16.2723 O.co2   1  UNL1       -0.5492
     21 O          69.9647   92.1987   14.2040 O.co2   1  UNL1       -0.5492
     22 C          64.7272   91.0780   14.9090 C.3     1  UNL1        0.1324
     23 C          64.2603   89.7520   15.4321 C.ar    1  UNL1        0.0004
     24 C          63.3737   89.6925   16.6406 C.ar    1  UNL1       -0.0015
     25 C          62.9068   88.3664   17.1637 C.ar    1  UNL1        0.0111
     26 C          63.3265   87.0999   16.4783 C.ar    1  UNL1        0.0577
     27 CL         62.8596   85.7739   17.0015 Cl      1  UNL1       -0.0822
     28 C          64.2131   87.1594   15.2698 C.ar    1  UNL1        0.0111
     29 C          64.6800   88.4854   14.7467 C.ar    1  UNL1       -0.0015
     30 O          61.1633   89.3076    9.0101 O.3     1  UNL1       -0.4690
     31 C          60.5863   87.9230    9.0153 C.3     1  UNL1        0.2508
     32 C          61.4704   86.7430    9.2912 C.ar    1  UNL1        0.1026
     33 C          62.2227   86.0909    8.1692 C.ar    1  UNL1        0.0184
     34 C          63.1068   84.9110    8.4451 C.ar    1  UNL1        0.0028
     35 C          63.2385   84.3831    9.8430 C.ar    1  UNL1        0.0177
     36 C          64.1226   83.2031   10.1188 C.ar    1  UNL1        0.0015
     37 C          64.2543   82.6753   11.5166 C.ar    1  UNL1        0.0001
     38 C          63.5020   83.3273   12.6386 C.ar    1  UNL1        0.0015
     39 C          62.6179   84.5073   12.3628 C.ar    1  UNL1        0.0191
     40 C          62.4862   85.0351   10.9649 C.ar    1  UNL1        0.0810
     41 N          61.6021   86.2151   10.6890 N.ar    1  UNL1       -0.2460
@<TRIPOS>UNITY_ATOM_ATTR
20 1
charge -1
@<TRIPOS>BOND
     1    11    12    1
     2    12    13    1
     3    12    14    1
     4    12    10    1
     5    10     1    1
     6     1     2   ar
     7     2    15    1
     8    15    16    1
     9    16    17    1
    10    16    18    1
    11    16    19    1
    12    19    20   ar
    13    19    21   ar
    14     2     3   ar
    15     3    22    1
    16    22    23    1
    17    23    24   ar
    18    24    25   ar
    19    25    26   ar
    20    26    27    1
    21    26    28   ar
    22    28    29   ar
    23     3     4   ar
    24     4     5   ar
    25     5     6   ar
    26     6     7   ar
    27     7    30    1
    28    30    31    1
    29    31    32    1
    30    32    33   ar
    31    33    34   ar
    32    34    35   ar
    33    35    36   ar
    34    36    37   ar
    35    37    38   ar
    36    38    39   ar
    37    39    40   ar
    38    40    41   ar
    39     7     8   ar
    40     8     9   ar
    41     9     1   ar
    42    29    23   ar
    43     9     4   ar
    44    41    32   ar
    45    40    35   ar
@<TRIPOS>MOLECULE
*****
 41 45 0 0 0
SMALL
GASTEIGER

@<TRIPOS>ATOM
      1 C          62.3660   88.0435   11.5034 C.ar    1  UNL1        0.0383
      2 C          62.4372   86.5606   11.7180 C.ar    1  UNL1        0.0433
      3 N          63.3206   86.3057   12.9031 N.ar    1  UNL1       -0.3260
      4 C          63.7954   87.6309   13.4210 C.ar    1  UNL1        0.0606
      5 C          64.6887   87.9985   14.5685 C.ar    1  UNL1        0.0203
      6 C          64.9920   89.4402   14.8510 C.ar    1  UNL1        0.0384
      7 C          64.4020   90.5142   13.9859 C.ar    1  UNL1        0.1392
      8 C          63.5087   90.1466   12.8384 C.ar    1  UNL1        0.0389
      9 C          63.2054   88.7050   12.5559 C.ar    1  UNL1        0.0256
     10 S          61.5914   88.7422   10.4255 S.3     1  UNL1       -0.1142
     11 C          61.4077   90.8267   10.0775 C.3     1  UNL1        0.0112
     12 C          60.5840   89.7931   10.7870 C.3     1  UNL1        0.0434
     13 C          59.7603   88.7596   11.4965 C.3     1  UNL1        0.0112
     14 C          59.5765   90.8440   11.1485 C.3     1  UNL1        0.0112
     15 C          61.7463   85.5161   10.8923 C.3     1  UNL1        0.0495
     16 C          61.5586   85.7276    9.4192 C.3     1  UNL1        0.0376
     17 C          62.9820   85.3197    9.1793 C.3     1  UNL1        0.0059
     18 C          60.1352   86.1355    9.6591 C.3     1  UNL1        0.0059
     19 C          61.3710   85.9391    7.9461 C.2     1  UNL1        0.0500
     20 O          60.3512   86.9228    7.4536 O.co2   1  UNL1       -0.5492
     21 O          62.2030   85.1670    6.9655 O.co2   1  UNL1       -0.5492
     22 C          63.6683   84.9614   13.4707 C.3     1  UNL1        0.1324
     23 C          63.5195   83.7299   12.6274 C.ar    1  UNL1        0.0004
     24 C          64.4125   83.5213   11.4404 C.ar    1  UNL1       -0.0015
     25 C          64.2636   82.2897   10.5971 C.ar    1  UNL1        0.0111
     26 C          63.2217   81.2668   10.9409 C.ar    1  UNL1        0.0577
     27 CL         63.0729   80.0353   10.0976 Cl      1  UNL1       -0.0822
     28 C          62.3287   81.4755   12.1279 C.ar    1  UNL1        0.0111
     29 C          62.4775   82.7070   12.9712 C.ar    1  UNL1       -0.0015
     30 O          64.7054   91.9557   14.2684 O.3     1  UNL1       -0.4690
     31 C          66.0803   92.4973   14.0109 C.3     1  UNL1        0.2508
     32 C          66.4445   93.0010   12.6457 C.ar    1  UNL1        0.1026
     33 C          67.0951   92.0809   11.6557 C.ar    1  UNL1        0.0184
     34 C          67.4593   92.5845   10.2906 C.ar    1  UNL1        0.0028
     35 C          67.1729   94.0084    9.9154 C.ar    1  UNL1        0.0177
     36 C          67.5371   94.5121    8.5503 C.ar    1  UNL1        0.0015
     37 C          67.2507   95.9358    8.1751 C.ar    1  UNL1        0.0001
     38 C          66.6001   96.8560    9.1652 C.ar    1  UNL1        0.0015
     39 C          66.2359   96.3523   10.5303 C.ar    1  UNL1        0.0191
     40 C          66.5223   94.9285   10.9054 C.ar    1  UNL1        0.0810
     41 N          66.1581   94.4248   12.2706 N.ar    1  UNL1       -0.2460
@<TRIPOS>UNITY_ATOM_ATTR
20 1
charge -1
@<TRIPOS>BOND
     1    11    12    1
     2    12    13    1
     3    12    14    1
     4    12    10    1
     5    10     1    1
     6     1     2   ar
     7     2    15    1
     8    15    16    1
     9    16    17    1
    10    16    18    1
    11    16    19    1
    12    19    20   ar
    13    19    21   ar
    14     2     3   ar
    15     3    22    1
    16    22    23    1
    17    23    24   ar
    18    24    25   ar
    19    25    26   ar
    20    26    27    1
    21    26    28   ar
    22    28    29   ar
    23     3     4   ar
    24     4     5   ar
    25     5     6   ar
    26     6     7   ar
    27     7    30    1
    28    30    31    1
    29    31    32    1
    30    32    33   ar
    31    33    34   ar
    32    34    35   ar
    33    35    36   ar
    34    36    37   ar
    35    37    38   ar
    36    38    39   ar
    37    39    40   ar
    38    40    41   ar
    39     7     8   ar
    40     8     9   ar
    41     9     1   ar
    42    29    23   ar
    43     9     4   ar
    44    41    32   ar
    45    40    35   ar
@<TRIPOS>MOLECULE
*****
 41 45 0 0 0
SMALL
GASTEIGER

@<TRIPOS>ATOM
      1 C          63.9720   89.1056   13.2252 C.ar    1  UNL1        0.0383
      2 C          64.8405   90.2651   13.6143 C.ar    1  UNL1        0.0433
      3 N          64.6188   91.3649   12.6187 N.ar    1  UNL1       -0.3260
      4 C          63.6132   90.8852   11.6143 C.ar    1  UNL1        0.0606
      5 C          63.0099   91.5394   10.4069 C.ar    1  UNL1        0.0203
      6 C          62.0068   90.7972    9.5743 C.ar    1  UNL1        0.0384
      7 C          61.6071   89.4009    9.9492 C.ar    1  UNL1        0.1392
      8 C          62.2104   88.7467   11.1567 C.ar    1  UNL1        0.0389
      9 C          63.2135   89.4888   11.9892 C.ar    1  UNL1        0.0256
     10 S          63.8785   87.7933   13.9457 S.3     1  UNL1       -0.1142
     11 C          62.7057   88.9968   15.2405 C.3     1  UNL1        0.0112
     12 C          63.5415   87.7624   15.4071 C.3     1  UNL1        0.0434
     13 C          64.3773   86.5280   15.5737 C.3     1  UNL1        0.0112
     14 C          63.2046   87.7314   16.8685 C.3     1  UNL1        0.0112
     15 C          65.7680   90.3158   14.7921 C.3     1  UNL1        0.0495
     16 C          65.8793   91.5712   15.6056 C.3     1  UNL1        0.0376
     17 C          64.4412   91.4364   16.0103 C.3     1  UNL1        0.0059
     18 C          67.3173   91.7060   15.2008 C.3     1  UNL1        0.0059
     19 C          65.9906   92.8266   16.4190 C.2     1  UNL1        0.0500
     20 O          67.2715   93.6071   16.4221 O.co2   1  UNL1       -0.5492
     21 O          64.8210   93.3014   17.2293 O.co2   1  UNL1       -0.5492
     22 C          65.2855   92.7085   12.6260 C.3     1  UNL1        0.1324
     23 C          66.0186   93.1887   11.4087 C.ar    1  UNL1        0.0004
     24 C          67.0415   92.3088   10.7535 C.ar    1  UNL1       -0.0015
     25 C          67.7747   92.7890    9.5361 C.ar    1  UNL1        0.0111
     26 C          67.4848   94.1492    8.9741 C.ar    1  UNL1        0.0577
     27 CL         68.2180   94.6293    7.7567 Cl      1  UNL1       -0.0822
     28 C          66.4619   95.0291    9.6292 C.ar    1  UNL1        0.0111
     29 C          65.7288   94.5490   10.8466 C.ar    1  UNL1       -0.0015
     30 O          60.6041   88.6588    9.1166 O.3     1  UNL1       -0.4690
     31 C          60.2094   87.2600    9.4876 C.3     1  UNL1        0.2508
     32 C          61.2641   86.2151    9.7020 C.ar    1  UNL1        0.1026
     33 C          62.1416   85.7902    8.5620 C.ar    1  UNL1        0.0184
     34 C          63.1962   84.7453    8.7764 C.ar    1  UNL1        0.0028
     35 C          63.3734   84.1253   10.1307 C.ar    1  UNL1        0.0177
     36 C          64.4280   83.0804   10.3451 C.ar    1  UNL1        0.0015
     37 C          64.6051   82.4604   11.6994 C.ar    1  UNL1        0.0001
     38 C          63.7276   82.8853   12.8393 C.ar    1  UNL1        0.0015
     39 C          62.6730   83.9302   12.6250 C.ar    1  UNL1        0.0191
     40 C          62.4959   84.5502   11.2707 C.ar    1  UNL1        0.0810
     41 N          61.4412   85.5951   11.0563 N.ar    1  UNL1       -0.2460
@<TRIPOS>UNITY_ATOM_ATTR
20 1
charge -1
@<TRIPOS>BOND
     1    11    12    1
     2    12    13    1
     3    12    14    1
     4    12    10    1
     5    10     1    1
     6     1     2   ar
     7     2    15    1
     8    15    16    1
     9    16    17    1
    10    16    18    1
    11    16    19    1
    12    19    20   ar
    13    19    21   ar
    14     2     3   ar
    15     3    22    1
    16    22    23    1
    17    23    24   ar
    18    24    25   ar
    19    25    26   ar
    20    26    27    1
    21    26    28   ar
    22    28    29   ar
    23     3     4   ar
    24     4     5   ar
    25     5     6   ar
    26     6     7   ar
    27     7    30    1
    28    30    31    1
    29    31    32    1
    30    32    33   ar
    31    33    34   ar
    32    34    35   ar
    33    35    36   ar
    34    36    37   ar
    35    37    38   ar
    36    38    39   ar
    37    39    40   ar
    38    40    41   ar
    39     7     8   ar
    40     8     9   ar
    41     9     1   ar
    42    29    23   ar
    43     9     4   ar
    44    41    32   ar
    45    40    35   ar
@<TRIPOS>MOLECULE
*****
 41 45 0 0 0
SMALL
GASTEIGER

@<TRIPOS>ATOM
      1 C          62.3670   87.8420   11.6245 C.ar    1  UNL1        0.0383
      2 C          62.6387   86.3748   11.7784 C.ar    1  UNL1        0.0433
      3 N          63.6185   86.2001   12.9006 N.ar    1  UNL1       -0.3260
      4 C          63.9523   87.5593   13.4403 C.ar    1  UNL1        0.0606
      5 C          64.8607   88.0040   14.5480 C.ar    1  UNL1        0.0203
      6 C          64.9955   89.4635   14.8671 C.ar    1  UNL1        0.0384
      7 C          64.2220   90.4782   14.0784 C.ar    1  UNL1        0.1392
      8 C          63.3137   90.0335   12.9707 C.ar    1  UNL1        0.0389
      9 C          63.1788   88.5740   12.6516 C.ar    1  UNL1        0.0256
     10 S          61.4452   88.4673   10.6199 S.3     1  UNL1       -0.1142
     11 C          61.2832   90.5543   10.2761 C.3     1  UNL1        0.0112
     12 C          60.4888   89.5414   11.0461 C.3     1  UNL1        0.0434
     13 C          59.6944   88.5284   11.8161 C.3     1  UNL1        0.0112
     14 C          59.5323   90.6154   11.4724 C.3     1  UNL1        0.0112
     15 C          62.0364   85.2754   10.9546 C.3     1  UNL1        0.0495
     16 C          62.0006   85.3920    9.4595 C.3     1  UNL1        0.0376
     17 C          60.6253   85.9856    9.5387 C.3     1  UNL1        0.0059
     18 C          63.3759   84.7985    9.3803 C.3     1  UNL1        0.0059
     19 C          61.9648   85.5086    7.9645 C.2     1  UNL1        0.0500
     20 O          62.9855   84.7912    7.1316 O.co2   1  UNL1       -0.5492
     21 O          60.9084   86.3425    7.3023 O.co2   1  UNL1       -0.5492
     22 C          64.1681   84.8954   13.3961 C.3     1  UNL1        0.1324
     23 C          63.2666   83.7038   13.5286 C.ar    1  UNL1        0.0004
     24 C          63.2636   82.6440   12.4671 C.ar    1  UNL1       -0.0015
     25 C          62.3621   81.4524   12.5996 C.ar    1  UNL1        0.0111
     26 C          61.4638   81.3207   13.7936 C.ar    1  UNL1        0.0577
     27 CL         60.5624   80.1291   13.9260 Cl      1  UNL1       -0.0822
     28 C          61.4669   82.3804   14.8551 C.ar    1  UNL1        0.0111
     29 C          62.3683   83.5720   14.7227 C.ar    1  UNL1       -0.0015
     30 O          64.3569   91.9376   14.3975 O.3     1  UNL1       -0.4690
     31 C          65.6964   92.6058   14.3010 C.3     1  UNL1        0.2508
     32 C          66.1849   93.1194   12.9790 C.ar    1  UNL1        0.1026
     33 C          65.9231   94.5426   12.5842 C.ar    1  UNL1        0.0184
     34 C          66.4115   95.0562   11.2623 C.ar    1  UNL1        0.0028
     35 C          67.1620   94.1465   10.3351 C.ar    1  UNL1        0.0177
     36 C          67.6505   94.6601    9.0132 C.ar    1  UNL1        0.0015
     37 C          68.4008   93.7505    8.0861 C.ar    1  UNL1        0.0001
     38 C          68.6627   92.3273    8.4809 C.ar    1  UNL1        0.0015
     39 C          68.1742   91.8137    9.8029 C.ar    1  UNL1        0.0191
     40 C          67.4239   92.7233   10.7299 C.ar    1  UNL1        0.0810
     41 N          66.9353   92.2098   12.0520 N.ar    1  UNL1       -0.2460
@<TRIPOS>UNITY_ATOM_ATTR
20 1
charge -1
@<TRIPOS>BOND
     1    11    12    1
     2    12    13    1
     3    12    14    1
     4    12    10    1
     5    10     1    1
     6     1     2   ar
     7     2    15    1
     8    15    16    1
     9    16    17    1
    10    16    18    1
    11    16    19    1
    12    19    20   ar
    13    19    21   ar
    14     2     3   ar
    15     3    22    1
    16    22    23    1
    17    23    24   ar
    18    24    25   ar
    19    25    26   ar
    20    26    27    1
    21    26    28   ar
    22    28    29   ar
    23     3     4   ar
    24     4     5   ar
    25     5     6   ar
    26     6     7   ar
    27     7    30    1
    28    30    31    1
    29    31    32    1
    30    32    33   ar
    31    33    34   ar
    32    34    35   ar
    33    35    36   ar
    34    36    37   ar
    35    37    38   ar
    36    38    39   ar
    37    39    40   ar
    38    40    41   ar
    39     7     8   ar
    40     8     9   ar
    41     9     1   ar
    42    29    23   ar
    43     9     4   ar
    44    41    32   ar
    45    40    35   ar
@<TRIPOS>MOLECULE
*****
 41 45 0 0 0
SMALL
GASTEIGER

@<TRIPOS>ATOM
      1 C          62.4484   85.9769   11.5193 C.ar    1  UNL1        0.0383
      2 C          63.1591   86.6770   12.6394 C.ar    1  UNL1        0.0433
      3 N          62.9768   88.1541   12.4525 N.ar    1  UNL1       -0.3260
      4 C          62.1534   88.3669   11.2168 C.ar    1  UNL1        0.0606
      5 C          61.6589   89.6120   10.5423 C.ar    1  UNL1        0.0203
      6 C          60.8377   89.5115    9.2910 C.ar    1  UNL1        0.0384
      7 C          60.5112   88.1659    8.7143 C.ar    1  UNL1        0.1392
      8 C          61.0057   86.9208    9.3888 C.ar    1  UNL1        0.0389
      9 C          61.8268   87.0212   10.6400 C.ar    1  UNL1        0.0256
     10 S          62.3725   84.4929   11.3143 S.3     1  UNL1       -0.1142
     11 C          63.4463   84.4465    9.4854 C.3     1  UNL1        0.0112
     12 C          63.5683   83.7440   10.8051 C.3     1  UNL1        0.0434
     13 C          63.6903   83.0414   12.1248 C.3     1  UNL1        0.0112
     14 C          64.7641   82.9950   10.2959 C.3     1  UNL1        0.0112
     15 C          63.9187   86.0161   13.7513 C.3     1  UNL1        0.0495
     16 C          63.4465   86.1548   15.1682 C.3     1  UNL1        0.0376
     17 C          64.3157   87.3652   15.3394 C.3     1  UNL1        0.0059
     18 C          62.5772   84.9444   14.9970 C.3     1  UNL1        0.0059
     19 C          62.9742   86.2935   16.5851 C.2     1  UNL1        0.0500
     20 O          62.3497   85.1232   17.2855 O.co2   1  UNL1       -0.5492
     21 O          63.1264   87.6025   17.3017 O.co2   1  UNL1       -0.5492
     22 C          63.5221   89.2297   13.3446 C.3     1  UNL1        0.1324
     23 C          64.2138   90.4196   12.7482 C.ar    1  UNL1        0.0004
     24 C          63.8185   90.9131   11.3880 C.ar    1  UNL1       -0.0015
     25 C          64.5103   92.1031   10.7917 C.ar    1  UNL1        0.0111
     26 C          65.5973   92.7993   11.5556 C.ar    1  UNL1        0.0577
     27 CL         66.2890   93.9893   10.9592 Cl      1  UNL1       -0.0822
     28 C          65.9926   92.3058   12.9158 C.ar    1  UNL1        0.0111
     29 C          65.3009   91.1159   13.5121 C.ar    1  UNL1       -0.0015
     30 O          59.6900   88.0655    7.4631 O.3     1  UNL1       -0.4690
     31 C          58.7250   89.1581    7.1096 C.3     1  UNL1        0.2508
     32 C          59.0679   90.1413    6.0299 C.ar    1  UNL1        0.1026
     33 C          58.0130   91.0613    5.4907 C.ar    1  UNL1        0.0184
     34 C          58.3558   92.0446    4.4110 C.ar    1  UNL1        0.0028
     35 C          59.7537   92.1078    3.8705 C.ar    1  UNL1        0.0177
     36 C          60.0965   93.0910    2.7908 C.ar    1  UNL1        0.0015
     37 C          61.4943   93.1542    2.2504 C.ar    1  UNL1        0.0001
     38 C          62.5492   92.2341    2.7895 C.ar    1  UNL1        0.0015
     39 C          62.2064   91.2509    3.8692 C.ar    1  UNL1        0.0191
     40 C          60.8086   91.1878    4.4097 C.ar    1  UNL1        0.0810
     41 N          60.4657   90.2045    5.4894 N.ar    1  UNL1       -0.2460
@<TRIPOS>UNITY_ATOM_ATTR
20 1
charge -1
@<TRIPOS>BOND
     1    11    12    1
     2    12    13    1
     3    12    14    1
     4    12    10    1
     5    10     1    1
     6     1     2   ar
     7     2    15    1
     8    15    16    1
     9    16    17    1
    10    16    18    1
    11    16    19    1
    12    19    20   ar
    13    19    21   ar
    14     2     3   ar
    15     3    22    1
    16    22    23    1
    17    23    24   ar
    18    24    25   ar
    19    25    26   ar
    20    26    27    1
    21    26    28   ar
    22    28    29   ar
    23     3     4   ar
    24     4     5   ar
    25     5     6   ar
    26     6     7   ar
    27     7    30    1
    28    30    31    1
    29    31    32    1
    30    32    33   ar
    31    33    34   ar
    32    34    35   ar
    33    35    36   ar
    34    36    37   ar
    35    37    38   ar
    36    38    39   ar
    37    39    40   ar
    38    40    41   ar
    39     7     8   ar
    40     8     9   ar
    41     9     1   ar
    42    29    23   ar
    43     9     4   ar
    44    41    32   ar
    45    40    35   ar
