@<TRIPOS>MOLECULE
*****
 45 46 0 0 0
SMALL
GASTEIGER

@<TRIPOS>ATOM
      1 C          63.0117   89.7004   12.4933 C.3     1  UNL1        0.1540
      2 C          61.5502   89.8501   12.1909 C.3     1  UNL1        0.0646
      3 C          61.0996   90.1315   10.7881 C.3     1  UNL1        0.1448
      4 O          60.3040   89.1062   10.0360 O.3     1  UNL1       -0.3537
      5 C          59.9246   89.3524    8.6058 C.3     1  UNL1        0.1422
      6 C          59.5785   88.1984    7.7123 C.3     1  UNL1        0.0321
      7 C          59.6100   86.7981    8.2495 C.3     1  UNL1        0.0026
      8 C          60.5930   85.8065    7.7014 C.3     1  UNL1        0.0001
      9 C          61.9155   85.6075    8.3806 C.3     1  UNL1        0.0000
     10 C          62.3510   86.5484    9.4646 C.3     1  UNL1        0.0000
     11 C          62.3435   86.0989   10.8956 C.3     1  UNL1        0.0000
     12 C          62.2467   84.6381   11.2224 C.3     1  UNL1        0.0000
     13 C          63.4602   83.7632   11.1138 C.3     1  UNL1        0.0000
     14 C          63.3046   82.2756   11.0007 C.3     1  UNL1        0.0000
     15 C          63.3531   81.4207   12.2323 C.3     1  UNL1        0.0010
     16 C          62.1099   81.2012   13.0423 C.3     1  UNL1        0.0140
     17 C          61.9491   81.8825   14.3689 C.3     1  UNL1        0.0763
     18 C          62.6473   83.1835   14.6336 C.1     1  UNL1       -0.0832
     19 C          63.3455   84.4844   14.8982 C.1     1  UNL1        0.0088
     20 C          64.0437   85.7853   15.1628 C.3     1  UNL1        0.4589
     21 F          64.7419   87.0863   15.4274 F       1  UNL1       -0.1586
     22 F          64.2467   85.9762   13.6889 F       1  UNL1       -0.1586
     23 F          63.8407   85.5945   16.6367 F       1  UNL1       -0.1586
     24 O          63.4545   89.2706   13.8605 O.3     1  UNL1       -0.2925
     25 P          63.4885   90.2633   14.9845 P.3     1  UNL1        0.3697
     26 O          62.2274   89.6737   15.5432 O.2     1  UNL1       -0.2553
     27 O          63.5224   91.2560   16.1085 O.3     1  UNL1       -0.3218
     28 H          62.7609   91.1105   16.6914 H       1  UNL1        0.2198
     29 C          64.7495   90.8529   14.4257 C.3     1  UNL1        0.2579
     30 O          65.6091   91.7344   15.2824 O.3     1  UNL1       -0.3426
     31 C          68.0481   92.2342   16.0249 C.3     1  UNL1        0.0342
     32 C          67.0564   91.9310   14.9411 C.3     1  UNL1        0.1387
     33 C          67.5121   91.8245   13.5158 C.3     1  UNL1        0.1384
     34 N          67.0920   92.8595   12.5147 N.ar    1  UNL1       -0.2918
     35 C          66.1664   94.0113   12.7729 C.ar    1  UNL1        0.1798
     36 N          66.0261   94.7880   11.4974 N.ar    1  UNL1       -0.2195
     37 C          66.8649   94.1163   10.4509 C.ar    1  UNL1        0.1481
     38 C          67.1140   94.4361    9.0067 C.ar    1  UNL1        0.1480
     39 N          66.4552   95.6280    8.3780 N.pl3   1  UNL1       -0.3413
     40 N          68.0219   93.5639    8.1913 N.ar    1  UNL1       -0.2078
     41 C          68.6807   92.3719    8.8201 C.ar    1  UNL1        0.2015
     42 N          68.4316   92.0522   10.2642 N.ar    1  UNL1       -0.2048
     43 C          67.5237   92.9244   11.0797 C.ar    1  UNL1        0.1674
     44 H          65.8594   96.2004    8.9132 H       1  UNL1        0.1438
     45 H          66.6187   95.8378    7.4301 H       1  UNL1        0.1438
@<TRIPOS>BOND
     1    32    31    1
     2    32    33    1
     3    33    34    1
     4    34    35   ar
     5    35    36   ar
     6    36    37   ar
     7    37    38   ar
     8    38    39    1
     9    38    40   ar
    10    40    41   ar
    11    41    42   ar
    12    42    43   ar
    13    32    30    1
    14    30    29    1
    15    29    25    1
    16    25    26    2
    17    25    27    1
    18    25    24    1
    19    24     1    1
    20     1     2    1
    21     2     3    1
    22     3     4    1
    23     4     5    1
    24     5     6    1
    25     6     7    1
    26     7     8    1
    27     8     9    1
    28     9    10    1
    29    10    11    1
    30    11    12    1
    31    12    13    1
    32    13    14    1
    33    14    15    1
    34    15    16    1
    35    16    17    1
    36    17    18    1
    37    18    19    3
    38    19    20    1
    39    20    21    1
    40    20    22    1
    41    20    23    1
    42    43    34   ar
    43    43    37   ar
    44    39    44    1
    45    39    45    1
    46    27    28    1
@<TRIPOS>MOLECULE
*****
 45 46 0 0 0
SMALL
GASTEIGER

@<TRIPOS>ATOM
      1 C          63.5192   87.6006   16.2641 C.3     1  UNL1        0.1540
      2 C          63.8330   86.1426   16.1038 C.3     1  UNL1        0.0646
      3 C          64.6626   85.6771   14.9441 C.3     1  UNL1        0.1448
      4 O          64.0098   84.9823   13.7860 O.3     1  UNL1       -0.3537
      5 C          62.6458   84.3790   13.9453 C.3     1  UNL1        0.1422
      6 C          62.4736   83.1098   14.7261 C.3     1  UNL1        0.0321
      7 C          62.8320   81.7924   14.1046 C.3     1  UNL1        0.0026
      8 C          62.1287   81.3333   12.8619 C.3     1  UNL1        0.0001
      9 C          62.8929   80.6153   11.7893 C.3     1  UNL1        0.0000
     10 C          63.4085   81.3719   10.6012 C.3     1  UNL1        0.0000
     11 C          64.0998   82.6892   10.7933 C.3     1  UNL1        0.0000
     12 C          63.4257   83.9592   10.3659 C.3     1  UNL1        0.0000
     13 C          63.4897   84.3967    8.9326 C.3     1  UNL1        0.0000
     14 C          62.7164   85.5998    8.4803 C.3     1  UNL1        0.0000
     15 C          61.4497   85.9856    9.1852 C.3     1  UNL1        0.0010
     16 C          60.4327   86.8387    8.4866 C.3     1  UNL1        0.0140
     17 C          60.0768   88.1865    9.0403 C.3     1  UNL1        0.0763
     18 C          61.1428   89.0588    9.6341 C.1     1  UNL1       -0.0832
     19 C          62.2088   89.9312   10.2279 C.1     1  UNL1        0.0088
     20 C          63.2749   90.8035   10.8217 C.3     1  UNL1        0.4589
     21 F          64.3409   91.6758   11.4155 F       1  UNL1       -0.1586
     22 F          63.0732   91.8004    9.7192 F       1  UNL1       -0.1586
     23 F          63.4766   89.8065   11.9241 F       1  UNL1       -0.1586
     24 O          63.9399   88.5789   15.2077 O.3     1  UNL1       -0.2925
     25 P          63.6323   90.0379   15.3714 P.3     1  UNL1        0.3697
     26 O          62.2631   89.6925   15.8773 O.2     1  UNL1       -0.2553
     27 O          63.3247   91.4969   15.5350 O.3     1  UNL1       -0.3218
     28 H          62.4236   91.6008   15.8787 H       1  UNL1        0.2198
     29 C          65.0014   90.3833   14.8654 C.3     1  UNL1        0.2579
     30 O          65.6921   91.6212   15.3559 O.3     1  UNL1       -0.3426
     31 C          68.1194   92.2709   16.0163 C.3     1  UNL1        0.0342
     32 C          67.1162   91.8890   14.9685 C.3     1  UNL1        0.1387
     33 C          67.5373   91.7748   13.5333 C.3     1  UNL1        0.1384
     34 N          67.1043   92.8121   12.5399 N.ar    1  UNL1       -0.2918
     35 C          66.1782   93.9604   12.8113 C.ar    1  UNL1        0.1798
     36 N          66.0231   94.7411   11.5399 N.ar    1  UNL1       -0.2195
     37 C          66.8533   94.0753   10.4828 C.ar    1  UNL1        0.1481
     38 C          67.0871   94.4006    9.0373 C.ar    1  UNL1        0.1480
     39 N          66.4189   95.5928    8.4192 N.pl3   1  UNL1       -0.3413
     40 N          67.9893   93.5337    8.2099 N.ar    1  UNL1       -0.2078
     41 C          68.6575   92.3415    8.8280 C.ar    1  UNL1        0.2015
     42 N          68.4237   92.0162   10.2735 N.ar    1  UNL1       -0.2048
     43 C          67.5216   92.8831   11.1009 C.ar    1  UNL1        0.1674
     44 H          65.8268   96.1618    8.9623 H       1  UNL1        0.1438
     45 H          66.5723   95.8063    7.4705 H       1  UNL1        0.1438
@<TRIPOS>BOND
     1    32    31    1
     2    32    33    1
     3    33    34    1
     4    34    35   ar
     5    35    36   ar
     6    36    37   ar
     7    37    38   ar
     8    38    39    1
     9    38    40   ar
    10    40    41   ar
    11    41    42   ar
    12    42    43   ar
    13    32    30    1
    14    30    29    1
    15    29    25    1
    16    25    26    2
    17    25    27    1
    18    25    24    1
    19    24     1    1
    20     1     2    1
    21     2     3    1
    22     3     4    1
    23     4     5    1
    24     5     6    1
    25     6     7    1
    26     7     8    1
    27     8     9    1
    28     9    10    1
    29    10    11    1
    30    11    12    1
    31    12    13    1
    32    13    14    1
    33    14    15    1
    34    15    16    1
    35    16    17    1
    36    17    18    1
    37    18    19    3
    38    19    20    1
    39    20    21    1
    40    20    22    1
    41    20    23    1
    42    43    34   ar
    43    43    37   ar
    44    39    44    1
    45    39    45    1
    46    27    28    1
@<TRIPOS>MOLECULE
*****
 45 46 0 0 0
SMALL
GASTEIGER

@<TRIPOS>ATOM
      1 C          63.0814   89.3626   16.4472 C.3     1  UNL1        0.1540
      2 C          63.4375   87.9151   16.6139 C.3     1  UNL1        0.0646
      3 C          62.5198   86.9990   17.3679 C.3     1  UNL1        0.1448
      4 O          62.1122   85.6858   16.7684 O.3     1  UNL1       -0.3537
      5 C          63.0429   84.9644   15.8392 C.3     1  UNL1        0.1422
      6 C          62.9547   83.4738   15.6973 C.3     1  UNL1        0.0321
      7 C          62.6151   82.8655   14.3688 C.3     1  UNL1        0.0026
      8 C          61.6328   81.7347   14.2907 C.3     1  UNL1        0.0001
      9 C          62.0061   80.4641   13.5863 C.3     1  UNL1        0.0000
     10 C          62.6812   80.5190   12.2480 C.3     1  UNL1        0.0000
     11 C          62.7974   81.8251   11.5196 C.3     1  UNL1        0.0000
     12 C          64.1384   82.4775   11.3589 C.3     1  UNL1        0.0000
     13 C          64.2979   83.6458   10.4318 C.3     1  UNL1        0.0000
     14 C          63.3817   83.7994    9.2542 C.3     1  UNL1        0.0000
     15 C          63.2829   85.1190    8.5478 C.3     1  UNL1        0.0010
     16 C          62.1289   86.0352    8.8284 C.3     1  UNL1        0.0140
     17 C          61.6265   86.2007   10.2320 C.3     1  UNL1        0.0763
     18 C          60.9038   87.4543   10.6271 C.1     1  UNL1       -0.0832
     19 C          60.1812   88.7079   11.0223 C.1     1  UNL1        0.0088
     20 C          59.4585   89.9616   11.4174 C.3     1  UNL1        0.4589
     21 F          58.7359   91.2152   11.8126 F       1  UNL1       -0.1586
     22 F          60.1743   90.7151   10.3358 F       1  UNL1       -0.1586
     23 F          58.7428   89.2080   12.4990 F       1  UNL1       -0.1586
     24 O          62.5950   89.8675   15.1211 O.3     1  UNL1       -0.2925
     25 P          63.5725   90.1294   14.0139 P.3     1  UNL1        0.3697
     26 O          62.8070   89.2009   13.1184 O.2     1  UNL1       -0.2553
     27 O          64.5499   90.3914   12.9067 O.3     1  UNL1       -0.3218
     28 H          64.2939   89.8818   12.1221 H       1  UNL1        0.2198
     29 C          64.3380   91.0579   14.9094 C.3     1  UNL1        0.2579
     30 O          65.8326   90.9604   14.9892 O.3     1  UNL1       -0.3426
     31 C          67.8148   92.2594   16.0539 C.3     1  UNL1        0.0342
     32 C          66.6609   92.2063   15.0970 C.3     1  UNL1        0.1387
     33 C          66.3353   93.3992   14.2477 C.3     1  UNL1        0.1384
     34 N          66.6765   93.3956   12.7871 N.ar    1  UNL1       -0.2918
     35 C          67.2788   92.2525   12.0252 C.ar    1  UNL1        0.1798
     36 N          67.4499   92.6849   10.5991 N.ar    1  UNL1       -0.2195
     37 C          66.9534   94.0954   10.4796 C.ar    1  UNL1        0.1481
     38 C          66.8748   95.0364    9.3142 C.ar    1  UNL1        0.1480
     39 N          67.3527   94.5972    7.9620 N.pl3   1  UNL1       -0.3413
     40 N          66.3182   96.4167    9.5011 N.ar    1  UNL1       -0.2078
     41 C          65.8402   96.8559   10.8534 C.ar    1  UNL1        0.2015
     42 N          65.9188   95.9149   12.0188 N.ar    1  UNL1       -0.2048
     43 C          66.4754   94.5346   11.8319 C.ar    1  UNL1        0.1674
     44 H          67.7180   93.6912    7.8393 H       1  UNL1        0.1438
     45 H          67.3011   95.2148    7.1971 H       1  UNL1        0.1438
@<TRIPOS>BOND
     1    32    31    1
     2    32    33    1
     3    33    34    1
     4    34    35   ar
     5    35    36   ar
     6    36    37   ar
     7    37    38   ar
     8    38    39    1
     9    38    40   ar
    10    40    41   ar
    11    41    42   ar
    12    42    43   ar
    13    32    30    1
    14    30    29    1
    15    29    25    1
    16    25    26    2
    17    25    27    1
    18    25    24    1
    19    24     1    1
    20     1     2    1
    21     2     3    1
    22     3     4    1
    23     4     5    1
    24     5     6    1
    25     6     7    1
    26     7     8    1
    27     8     9    1
    28     9    10    1
    29    10    11    1
    30    11    12    1
    31    12    13    1
    32    13    14    1
    33    14    15    1
    34    15    16    1
    35    16    17    1
    36    17    18    1
    37    18    19    3
    38    19    20    1
    39    20    21    1
    40    20    22    1
    41    20    23    1
    42    43    34   ar
    43    43    37   ar
    44    39    44    1
    45    39    45    1
    46    27    28    1
@<TRIPOS>MOLECULE
*****
 45 46 0 0 0
SMALL
GASTEIGER

@<TRIPOS>ATOM
      1 C          60.1544   89.7160    9.6492 C.3     1  UNL1        0.1540
      2 C          61.0067   90.2376   10.7678 C.3     1  UNL1        0.0646
      3 C          61.7801   89.2835   11.6289 C.3     1  UNL1        0.1448
      4 O          62.1069   89.6488   13.0466 O.3     1  UNL1       -0.3537
      5 C          63.4804   89.3892   13.5905 C.3     1  UNL1        0.1422
      6 C          64.5711   90.3985   13.3865 C.3     1  UNL1        0.0321
      7 C          64.2725   91.6962   12.6958 C.3     1  UNL1        0.0026
      8 C          64.4866   91.8251   11.2167 C.3     1  UNL1        0.0001
      9 C          64.9944   93.1142   10.6419 C.3     1  UNL1        0.0000
     10 C          65.7835   94.0585   11.4995 C.3     1  UNL1        0.0000
     11 C          66.3073   95.3388   10.9194 C.3     1  UNL1        0.0000
     12 C          66.2528   95.5686    9.4382 C.3     1  UNL1        0.0000
     13 C          67.2052   94.8469    8.5316 C.3     1  UNL1        0.0000
     14 C          68.3913   94.1310    9.1066 C.3     1  UNL1        0.0000
     15 C          68.5055   92.6414    8.9726 C.3     1  UNL1        0.0010
     16 C          67.9904   91.7486   10.0624 C.3     1  UNL1        0.0140
     17 C          68.8180   91.5102   11.2905 C.3     1  UNL1        0.0763
     18 C          68.2629   91.8395   12.6445 C.1     1  UNL1       -0.0832
     19 C          67.7079   92.1689   13.9986 C.1     1  UNL1        0.0088
     20 C          67.1528   92.4983   15.3526 C.3     1  UNL1        0.4589
     21 F          66.5978   92.8276   16.7067 F       1  UNL1       -0.1586
     22 F          68.1378   91.5599   15.9846 F       1  UNL1       -0.1586
     23 F          66.1679   93.4366   14.7206 F       1  UNL1       -0.1586
     24 O          60.6178   88.5432    8.8371 O.3     1  UNL1       -0.2925
     25 P          59.6143   87.6385    8.1856 P.3     1  UNL1        0.3697
     26 O          58.9838   88.8219    7.5133 O.2     1  UNL1       -0.2553
     27 O          58.6108   86.7337    7.5341 O.3     1  UNL1       -0.3218
     28 H          58.0101   87.2602    6.9838 H       1  UNL1        0.2198
     29 C          60.2448   86.4550    8.8579 C.3     1  UNL1        0.2579
     30 O          61.7303   86.4110    9.0608 O.3     1  UNL1       -0.3426
     31 C          62.4174   84.8446    7.1052 C.3     1  UNL1        0.0342
     32 C          62.5235   85.2464    8.5465 C.3     1  UNL1        0.1387
     33 C          63.4227   84.4834    9.4736 C.3     1  UNL1        0.1384
     34 N          63.1419   84.4681   10.9470 N.ar    1  UNL1       -0.2918
     35 C          62.9188   85.6713   11.8145 C.ar    1  UNL1        0.1798
     36 N          62.6739   85.1937   13.2152 N.ar    1  UNL1       -0.2195
     37 C          62.7456   83.6954   13.2133 C.ar    1  UNL1        0.1481
     38 C          62.5849   82.6815   14.3070 C.ar    1  UNL1        0.1480
     39 N          62.2957   83.1299   15.7089 N.pl3   1  UNL1       -0.3413
     40 N          62.7135   81.2192   13.9988 N.ar    1  UNL1       -0.2078
     41 C          63.0028   80.7708   12.5969 C.ar    1  UNL1        0.2015
     42 N          63.1635   81.7847   11.5032 N.ar    1  UNL1       -0.2048
     43 C          63.0349   83.2470   11.8115 C.ar    1  UNL1        0.1674
     44 H          62.2113   84.0897   15.9111 H       1  UNL1        0.1438
     45 H          62.1902   82.4644   16.4267 H       1  UNL1        0.1438
@<TRIPOS>BOND
     1    32    31    1
     2    32    33    1
     3    33    34    1
     4    34    35   ar
     5    35    36   ar
     6    36    37   ar
     7    37    38   ar
     8    38    39    1
     9    38    40   ar
    10    40    41   ar
    11    41    42   ar
    12    42    43   ar
    13    32    30    1
    14    30    29    1
    15    29    25    1
    16    25    26    2
    17    25    27    1
    18    25    24    1
    19    24     1    1
    20     1     2    1
    21     2     3    1
    22     3     4    1
    23     4     5    1
    24     5     6    1
    25     6     7    1
    26     7     8    1
    27     8     9    1
    28     9    10    1
    29    10    11    1
    30    11    12    1
    31    12    13    1
    32    13    14    1
    33    14    15    1
    34    15    16    1
    35    16    17    1
    36    17    18    1
    37    18    19    3
    38    19    20    1
    39    20    21    1
    40    20    22    1
    41    20    23    1
    42    43    34   ar
    43    43    37   ar
    44    39    44    1
    45    39    45    1
    46    27    28    1
@<TRIPOS>MOLECULE
*****
 45 46 0 0 0
SMALL
GASTEIGER

@<TRIPOS>ATOM
      1 C          60.2534   89.2921    9.9718 C.3     1  UNL1        0.1540
      2 C          61.0853   90.4762   10.3666 C.3     1  UNL1        0.0646
      3 C          62.5634   90.4729   10.1113 C.3     1  UNL1        0.1448
      4 O          63.3288   91.7628   10.1198 O.3     1  UNL1       -0.3537
      5 C          64.6912   91.8225   10.7445 C.3     1  UNL1        0.1422
      6 C          65.1892   93.1075   11.3368 C.3     1  UNL1        0.0321
      7 C          65.4021   94.3052   10.4589 C.3     1  UNL1        0.0026
      8 C          66.7250   95.0121   10.4626 C.3     1  UNL1        0.0001
      9 C          67.6620   94.8562    9.3017 C.3     1  UNL1        0.0000
     10 C          68.0677   93.4866    8.8439 C.3     1  UNL1        0.0000
     11 C          68.9516   92.6379    9.7091 C.3     1  UNL1        0.0000
     12 C          68.3442   91.6563   10.6669 C.3     1  UNL1        0.0000
     13 C          68.7908   91.6308   12.0986 C.3     1  UNL1        0.0000
     14 C          67.8377   92.0220   13.1887 C.3     1  UNL1        0.0000
     15 C          68.3592   92.3734   14.5506 C.3     1  UNL1        0.0010
     16 C          67.5160   93.1826   15.4908 C.3     1  UNL1        0.0140
     17 C          66.2584   92.5981   16.0626 C.3     1  UNL1        0.0763
     18 C          65.4616   91.6081   15.2658 C.1     1  UNL1       -0.0832
     19 C          64.6648   90.6180   14.4690 C.1     1  UNL1        0.0088
     20 C          63.8681   89.6279   13.6722 C.3     1  UNL1        0.4589
     21 F          63.0713   88.6379   12.8754 F       1  UNL1       -0.1586
     22 F          64.7315   88.5161   14.1902 F       1  UNL1       -0.1586
     23 F          63.0046   90.7397   13.1542 F       1  UNL1       -0.1586
     24 O          60.6223   88.4863    8.7616 O.3     1  UNL1       -0.2925
     25 P          59.6291   87.5351    8.1626 P.3     1  UNL1        0.3697
     26 O          58.9840   88.6720    7.4269 O.2     1  UNL1       -0.2553
     27 O          58.6359   86.5839    7.5636 O.3     1  UNL1       -0.3218
     28 H          58.0285   87.0720    6.9859 H       1  UNL1        0.2198
     29 C          60.2742   86.3982    8.8983 C.3     1  UNL1        0.2579
     30 O          61.7671   86.3425    9.0325 O.3     1  UNL1       -0.3426
     31 C          62.4638   84.8312    7.0374 C.3     1  UNL1        0.0342
     32 C          62.5247   85.1630    8.4990 C.3     1  UNL1        0.1387
     33 C          63.3433   84.3151    9.4271 C.3     1  UNL1        0.1384
     34 N          63.0887   84.3599   10.9047 N.ar    1  UNL1       -0.2918
     35 C          62.8670   85.5966   11.7241 C.ar    1  UNL1        0.1798
     36 N          62.6525   85.1769   13.1481 N.ar    1  UNL1       -0.2195
     37 C          62.7416   83.6807   13.2088 C.ar    1  UNL1        0.1481
     38 C          62.6121   82.7129   14.3474 C.ar    1  UNL1        0.1480
     39 N          62.3425   83.2178   15.7339 N.pl3   1  UNL1       -0.3413
     40 N          62.7522   81.2402   14.0995 N.ar    1  UNL1       -0.2078
     41 C          63.0218   80.7353   12.7130 C.ar    1  UNL1        0.2015
     42 N          63.1513   81.7031   11.5744 N.ar    1  UNL1       -0.2048
     43 C          63.0112   83.1758   11.8223 C.ar    1  UNL1        0.1674
     44 H          62.2506   84.1844   15.8966 H       1  UNL1        0.1438
     45 H          62.2575   82.5826   16.4812 H       1  UNL1        0.1438
@<TRIPOS>BOND
     1    32    31    1
     2    32    33    1
     3    33    34    1
     4    34    35   ar
     5    35    36   ar
     6    36    37   ar
     7    37    38   ar
     8    38    39    1
     9    38    40   ar
    10    40    41   ar
    11    41    42   ar
    12    42    43   ar
    13    32    30    1
    14    30    29    1
    15    29    25    1
    16    25    26    2
    17    25    27    1
    18    25    24    1
    19    24     1    1
    20     1     2    1
    21     2     3    1
    22     3     4    1
    23     4     5    1
    24     5     6    1
    25     6     7    1
    26     7     8    1
    27     8     9    1
    28     9    10    1
    29    10    11    1
    30    11    12    1
    31    12    13    1
    32    13    14    1
    33    14    15    1
    34    15    16    1
    35    16    17    1
    36    17    18    1
    37    18    19    3
    38    19    20    1
    39    20    21    1
    40    20    22    1
    41    20    23    1
    42    43    34   ar
    43    43    37   ar
    44    39    44    1
    45    39    45    1
    46    27    28    1
@<TRIPOS>MOLECULE
*****
 45 46 0 0 0
SMALL
GASTEIGER

@<TRIPOS>ATOM
      1 C          63.1585   81.6248   11.2179 C.3     1  UNL1        0.1540
      2 C          64.0891   82.4128   10.3443 C.3     1  UNL1        0.0646
      3 C          63.7962   83.8528   10.0435 C.3     1  UNL1        0.1448
      4 O          62.8119   84.6096   10.8852 O.3     1  UNL1       -0.3537
      5 C          62.0437   85.7544   10.2941 C.3     1  UNL1        0.1422
      6 C          62.3304   86.2060    8.8928 C.3     1  UNL1        0.0321
      7 C          61.5818   85.6015    7.7419 C.3     1  UNL1        0.0026
      8 C          60.1171   85.8770    7.5724 C.3     1  UNL1        0.0001
      9 C          59.4831   87.0315    8.2900 C.3     1  UNL1        0.0000
     10 C          59.6239   88.4219    7.7452 C.3     1  UNL1        0.0000
     11 C          60.0604   89.5395    8.6455 C.3     1  UNL1        0.0000
     12 C          60.0720   89.3436   10.1326 C.3     1  UNL1        0.0000
     13 C          61.3586   89.4616   10.8946 C.3     1  UNL1        0.0000
     14 C          62.5731   90.0400   10.2309 C.3     1  UNL1        0.0000
     15 C          63.5512   90.8487   11.0305 C.3     1  UNL1        0.0010
     16 C          64.1222   92.1131   10.4601 C.3     1  UNL1        0.0140
     17 C          65.5465   92.4878   10.7442 C.3     1  UNL1        0.0763
     18 C          66.0571   92.4802   12.1547 C.1     1  UNL1       -0.0832
     19 C          66.5676   92.4726   13.5651 C.1     1  UNL1        0.0088
     20 C          67.0781   92.4650   14.9755 C.3     1  UNL1        0.4589
     21 F          67.5887   92.4574   16.3859 F       1  UNL1       -0.1586
     22 F          66.9464   93.9582   15.0312 F       1  UNL1       -0.1586
     23 F          67.2099   90.9719   14.9198 F       1  UNL1       -0.1586
     24 O          63.6039   81.1806   12.5796 O.3     1  UNL1       -0.2925
     25 P          62.6426   81.2121   13.7305 P.3     1  UNL1        0.3697
     26 O          63.2037   79.9156   14.2348 O.2     1  UNL1       -0.2553
     27 O          61.6812   81.2435   14.8815 O.3     1  UNL1       -0.3218
     28 H          61.8161   80.4599   15.4370 H       1  UNL1        0.2198
     29 C          62.0814   82.5085   13.2263 C.3     1  UNL1        0.2579
     30 O          62.1721   83.7443   14.0716 O.3     1  UNL1       -0.3426
     31 C          64.7157   84.1941   13.7930 C.3     1  UNL1        0.0342
     32 C          63.4899   84.1578   14.6567 C.3     1  UNL1        0.1387
     33 C          63.5819   84.5350   16.1057 C.3     1  UNL1        0.1384
     34 N          63.4107   85.9664   16.5204 N.ar    1  UNL1       -0.2918
     35 C          62.9764   86.4463   17.8735 C.ar    1  UNL1        0.1798
     36 N          62.9411   87.9456   17.8441 N.ar    1  UNL1       -0.2195
     37 C          63.3536   88.3923   16.4728 C.ar    1  UNL1        0.1481
     38 C          63.5024   89.7548   15.8634 C.ar    1  UNL1        0.1480
     39 N          63.2122   90.9780   16.6816 N.pl3   1  UNL1       -0.3413
     40 N          63.9415   89.8940   14.4360 N.ar    1  UNL1       -0.2078
     41 C          64.2318   88.6707   13.6178 C.ar    1  UNL1        0.2015
     42 N          64.0830   87.3082   14.2272 N.ar    1  UNL1       -0.2048
     43 C          63.6439   87.1690   15.6547 C.ar    1  UNL1        0.1674
     44 H          62.9240   90.8867   17.6185 H       1  UNL1        0.1438
     45 H          63.3099   91.8723   16.2816 H       1  UNL1        0.1438
@<TRIPOS>BOND
     1    32    31    1
     2    32    33    1
     3    33    34    1
     4    34    35   ar
     5    35    36   ar
     6    36    37   ar
     7    37    38   ar
     8    38    39    1
     9    38    40   ar
    10    40    41   ar
    11    41    42   ar
    12    42    43   ar
    13    32    30    1
    14    30    29    1
    15    29    25    1
    16    25    26    2
    17    25    27    1
    18    25    24    1
    19    24     1    1
    20     1     2    1
    21     2     3    1
    22     3     4    1
    23     4     5    1
    24     5     6    1
    25     6     7    1
    26     7     8    1
    27     8     9    1
    28     9    10    1
    29    10    11    1
    30    11    12    1
    31    12    13    1
    32    13    14    1
    33    14    15    1
    34    15    16    1
    35    16    17    1
    36    17    18    1
    37    18    19    3
    38    19    20    1
    39    20    21    1
    40    20    22    1
    41    20    23    1
    42    43    34   ar
    43    43    37   ar
    44    39    44    1
    45    39    45    1
    46    27    28    1
@<TRIPOS>MOLECULE
*****
 45 46 0 0 0
SMALL
GASTEIGER

@<TRIPOS>ATOM
      1 C          60.1384   86.0120    7.7877 C.3     1  UNL1        0.1540
      2 C          61.2454   85.3150    7.0538 C.3     1  UNL1        0.0646
      3 C          62.5131   84.9583    7.7720 C.3     1  UNL1        0.1448
      4 O          62.8162   85.5704    9.1074 O.3     1  UNL1       -0.3537
      5 C          63.2003   84.6956   10.2637 C.3     1  UNL1        0.1422
      6 C          63.9733   83.4326   10.0244 C.3     1  UNL1        0.0321
      7 C          64.1737   82.4527   11.1424 C.3     1  UNL1        0.0026
      8 C          63.0153   81.6455   11.6489 C.3     1  UNL1        0.0001
      9 C          62.9876   81.1876   13.0770 C.3     1  UNL1        0.0000
     10 C          62.0305   81.8142   14.0472 C.3     1  UNL1        0.0000
     11 C          62.4694   82.9748   14.8900 C.3     1  UNL1        0.0000
     12 C          62.6921   84.3176   14.2597 C.3     1  UNL1        0.0000
     13 C          64.0867   84.7891   13.9720 C.3     1  UNL1        0.0000
     14 C          64.7627   85.7468   14.9077 C.3     1  UNL1        0.0000
     15 C          64.1645   87.0995   15.1576 C.3     1  UNL1        0.0010
     16 C          64.4851   88.2423   14.2404 C.3     1  UNL1        0.0140
     17 C          64.0227   89.6284   14.5792 C.3     1  UNL1        0.0763
     18 C          65.0273   90.7091   14.8495 C.1     1  UNL1       -0.0832
     19 C          66.0318   91.7897   15.1199 C.1     1  UNL1        0.0088
     20 C          67.0364   92.8703   15.3902 C.3     1  UNL1        0.4589
     21 F          68.0410   93.9510   15.6605 F       1  UNL1       -0.1586
     22 F          66.2277   93.8282   14.5665 F       1  UNL1       -0.1586
     23 F          67.8451   91.9125   16.2139 F       1  UNL1       -0.1586
     24 O          59.4901   87.2255    7.1904 O.3     1  UNL1       -0.2925
     25 P          59.7217   88.5764    7.7999 P.3     1  UNL1        0.3697
     26 O          60.5106   87.9417    8.9066 O.2     1  UNL1       -0.2553
     27 O          59.9533   89.9272    8.4095 O.3     1  UNL1       -0.3218
     28 H          60.4842   89.8315    9.2156 H       1  UNL1        0.2198
     29 C          58.9328   89.2110    6.6932 C.3     1  UNL1        0.2579
     30 O          59.5213   90.3451    5.9074 O.3     1  UNL1       -0.3426
     31 C          57.1410   91.0652    5.1554 C.3     1  UNL1        0.0342
     32 C          58.6299   91.2364    5.0944 C.3     1  UNL1        0.1387
     33 C          59.2275   92.2989    4.2202 C.3     1  UNL1        0.1384
     34 N          60.6466   92.1733    3.7507 N.ar    1  UNL1       -0.2918
     35 C          61.6731   91.2222    4.2908 C.ar    1  UNL1        0.1798
     36 N          62.9492   91.4379    3.5325 N.ar    1  UNL1       -0.2195
     37 C          62.7114   92.5222    2.5237 C.ar    1  UNL1        0.1481
     38 C          63.6068   93.1545    1.4998 C.ar    1  UNL1        0.1480
     39 N          65.0299   92.7000    1.3649 N.pl3   1  UNL1       -0.3413
     40 N          63.0791   94.2412    0.6107 N.ar    1  UNL1       -0.2078
     41 C          61.6560   94.6957    0.7456 C.ar    1  UNL1        0.2015
     42 N          60.7606   94.0635    1.7695 N.ar    1  UNL1       -0.2048
     43 C          61.2883   92.9768    2.6586 C.ar    1  UNL1        0.1674
     44 H          65.3762   91.9867    1.9485 H       1  UNL1        0.1438
     45 H          65.6176   93.1149    0.6929 H       1  UNL1        0.1438
@<TRIPOS>BOND
     1    32    31    1
     2    32    33    1
     3    33    34    1
     4    34    35   ar
     5    35    36   ar
     6    36    37   ar
     7    37    38   ar
     8    38    39    1
     9    38    40   ar
    10    40    41   ar
    11    41    42   ar
    12    42    43   ar
    13    32    30    1
    14    30    29    1
    15    29    25    1
    16    25    26    2
    17    25    27    1
    18    25    24    1
    19    24     1    1
    20     1     2    1
    21     2     3    1
    22     3     4    1
    23     4     5    1
    24     5     6    1
    25     6     7    1
    26     7     8    1
    27     8     9    1
    28     9    10    1
    29    10    11    1
    30    11    12    1
    31    12    13    1
    32    13    14    1
    33    14    15    1
    34    15    16    1
    35    16    17    1
    36    17    18    1
    37    18    19    3
    38    19    20    1
    39    20    21    1
    40    20    22    1
    41    20    23    1
    42    43    34   ar
    43    43    37   ar
    44    39    44    1
    45    39    45    1
    46    27    28    1
@<TRIPOS>MOLECULE
*****
 45 46 0 0 0
SMALL
GASTEIGER

@<TRIPOS>ATOM
      1 C          63.1906   90.2093   11.5614 C.3     1  UNL1        0.1540
      2 C          62.1203   89.6537   10.6694 C.3     1  UNL1        0.0646
      3 C          60.8612   89.0974   11.2655 C.3     1  UNL1        0.1448
      4 O          60.7173   87.6182   11.4681 O.3     1  UNL1       -0.3537
      5 C          61.9024   86.7172   11.2848 C.3     1  UNL1        0.1422
      6 C          61.8806   85.6553   10.2256 C.3     1  UNL1        0.0321
      7 C          61.9502   86.0391    8.7771 C.3     1  UNL1        0.0026
      8 C          60.7114   86.0059    7.9320 C.3     1  UNL1        0.0001
      9 C          59.5716   86.9326    8.2352 C.3     1  UNL1        0.0000
     10 C          59.6660   88.3835    7.8667 C.3     1  UNL1        0.0000
     11 C          58.8488   88.9235    6.7308 C.3     1  UNL1        0.0000
     12 C          59.3329   90.1148    5.9584 C.3     1  UNL1        0.0000
     13 C          58.3590   91.1625    5.5071 C.3     1  UNL1        0.0000
     14 C          58.6257   91.9452    4.2556 C.3     1  UNL1        0.0000
     15 C          60.0242   92.3733    3.9225 C.3     1  UNL1        0.0010
     16 C          60.3006   93.0995    2.6395 C.3     1  UNL1        0.0140
     17 C          61.5320   92.7778    1.8458 C.3     1  UNL1        0.0763
     18 C          62.6271   93.7945    1.7150 C.1     1  UNL1       -0.0832
     19 C          63.7221   94.8112    1.5843 C.1     1  UNL1        0.0088
     20 C          64.8171   95.8280    1.4535 C.3     1  UNL1        0.4589
     21 F          65.9122   96.8447    1.3228 F       1  UNL1       -0.1586
     22 F          65.2334   95.2121    0.1507 F       1  UNL1       -0.1586
     23 F          64.4009   96.4439    2.7564 F       1  UNL1       -0.1586
     24 O          63.5063   89.5352   12.8637 O.3     1  UNL1       -0.2925
     25 P          63.8450   90.3579   14.0713 P.3     1  UNL1        0.3697
     26 O          63.6770   91.6113   13.2646 O.2     1  UNL1       -0.2553
     27 O          64.1837   91.1806   15.2790 O.3     1  UNL1       -0.3218
     28 H          64.1543   92.1221   15.0475 H       1  UNL1        0.2198
     29 C          64.0130   89.1045   14.8780 C.3     1  UNL1        0.2579
     30 O          64.1277   87.7779   14.1876 O.3     1  UNL1       -0.3426
     31 C          63.6621   86.4302   16.3594 C.3     1  UNL1        0.0342
     32 C          64.2782   86.5227   14.9949 C.3     1  UNL1        0.1387
     33 C          65.0449   85.3599   14.4377 C.3     1  UNL1        0.1384
     34 N          64.3687   84.0332   14.2568 N.ar    1  UNL1       -0.2918
     35 C          63.7819   83.1868   15.3473 C.ar    1  UNL1        0.1798
     36 N          63.2112   81.9505   14.7181 N.ar    1  UNL1       -0.2195
     37 C          63.4453   82.0329   13.2387 C.ar    1  UNL1        0.1481
     38 C          63.0994   81.1021   12.1145 C.ar    1  UNL1        0.1480
     39 N          62.3840   79.8149   12.3996 N.pl3   1  UNL1       -0.3413
     40 N          63.4690   81.4586   10.7051 N.ar    1  UNL1       -0.2078
     41 C          64.1844   82.7458   10.4201 C.ar    1  UNL1        0.2015
     42 N          64.5302   83.6766   11.5443 N.ar    1  UNL1       -0.2048
     43 C          64.1607   83.3201   12.9537 C.ar    1  UNL1        0.1674
     44 H          62.1415   79.5810   13.3246 H       1  UNL1        0.1438
     45 H          62.1570   79.2040   11.6616 H       1  UNL1        0.1438
@<TRIPOS>BOND
     1    32    31    1
     2    32    33    1
     3    33    34    1
     4    34    35   ar
     5    35    36   ar
     6    36    37   ar
     7    37    38   ar
     8    38    39    1
     9    38    40   ar
    10    40    41   ar
    11    41    42   ar
    12    42    43   ar
    13    32    30    1
    14    30    29    1
    15    29    25    1
    16    25    26    2
    17    25    27    1
    18    25    24    1
    19    24     1    1
    20     1     2    1
    21     2     3    1
    22     3     4    1
    23     4     5    1
    24     5     6    1
    25     6     7    1
    26     7     8    1
    27     8     9    1
    28     9    10    1
    29    10    11    1
    30    11    12    1
    31    12    13    1
    32    13    14    1
    33    14    15    1
    34    15    16    1
    35    16    17    1
    36    17    18    1
    37    18    19    3
    38    19    20    1
    39    20    21    1
    40    20    22    1
    41    20    23    1
    42    43    34   ar
    43    43    37   ar
    44    39    44    1
    45    39    45    1
    46    27    28    1
@<TRIPOS>MOLECULE
*****
 45 46 0 0 0
SMALL
GASTEIGER

@<TRIPOS>ATOM
      1 C          63.1234   90.1988   11.4294 C.3     1  UNL1        0.1540
      2 C          62.0507   89.5570   10.6002 C.3     1  UNL1        0.0646
      3 C          60.8401   88.9704   11.2637 C.3     1  UNL1        0.1448
      4 O          60.7354   87.4866   11.4563 O.3     1  UNL1       -0.3537
      5 C          61.9239   86.6103   11.1926 C.3     1  UNL1        0.1422
      6 C          61.8787   85.5979   10.0867 C.3     1  UNL1        0.0321
      7 C          61.8904   86.0489    8.6560 C.3     1  UNL1        0.0026
      8 C          60.6251   86.0221    7.8509 C.3     1  UNL1        0.0001
      9 C          59.4947   86.9444    8.1993 C.3     1  UNL1        0.0000
     10 C          59.5983   88.4084    7.8892 C.3     1  UNL1        0.0000
     11 C          58.8777   88.9765    6.7027 C.3     1  UNL1        0.0000
     12 C          59.4342   90.1730    5.9895 C.3     1  UNL1        0.0000
     13 C          58.5063   91.1768    5.3720 C.3     1  UNL1        0.0000
     14 C          58.9929   92.0683    4.2682 C.3     1  UNL1        0.0000
     15 C          60.4619   92.1787    3.9857 C.3     1  UNL1        0.0010
     16 C          60.9354   92.8319    2.7212 C.3     1  UNL1        0.0140
     17 C          60.0574   93.8210    2.0136 C.3     1  UNL1        0.0763
     18 C          59.3079   93.4110    0.7806 C.1     1  UNL1       -0.0832
     19 C          58.5584   93.0010   -0.4523 C.1     1  UNL1        0.0088
     20 C          57.8089   92.5910   -1.6853 C.3     1  UNL1        0.4589
     21 F          57.0594   92.1810   -2.9182 F       1  UNL1       -0.1586
     22 F          56.5147   92.7005   -0.9350 F       1  UNL1       -0.1586
     23 F          59.1031   92.4815   -2.4356 F       1  UNL1       -0.1586
     24 O          63.5020   89.6068   12.7546 O.3     1  UNL1       -0.2925
     25 P          63.9494   90.4990   13.8743 P.3     1  UNL1        0.3697
     26 O          63.4909   91.6996   13.1009 O.2     1  UNL1       -0.2553
     27 O          64.3968   91.3912   14.9941 O.3     1  UNL1       -0.3218
     28 H          64.2136   92.3155   14.7639 H       1  UNL1        0.2198
     29 C          64.4079   89.2984   14.6478 C.3     1  UNL1        0.2579
     30 O          64.3384   87.9347   14.0269 O.3     1  UNL1       -0.3426
     31 C          63.5727   86.7271   16.1960 C.3     1  UNL1        0.0342
     32 C          64.3243   86.7137   14.8980 C.3     1  UNL1        0.1387
     33 C          65.0620   85.4793   14.4711 C.3     1  UNL1        0.1384
     34 N          64.3385   84.1688   14.3749 N.ar    1  UNL1       -0.2918
     35 C          63.7149   83.4201   15.5153 C.ar    1  UNL1        0.1798
     36 N          63.1026   82.1656   14.9665 N.ar    1  UNL1       -0.2195
     37 C          63.3477   82.1390   13.4869 C.ar    1  UNL1        0.1481
     38 C          62.9740   81.1473   12.4253 C.ar    1  UNL1        0.1480
     39 N          62.2102   79.9092   12.7910 N.pl3   1  UNL1       -0.3413
     40 N          63.3642   81.3938   10.9981 N.ar    1  UNL1       -0.2078
     41 C          64.1281   82.6318   10.6325 C.ar    1  UNL1        0.2015
     42 N          64.5017   83.6235   11.6940 N.ar    1  UNL1       -0.2048
     43 C          64.1115   83.3770   13.1212 C.ar    1  UNL1        0.1674
     44 H          61.9541   79.7475   13.7277 H       1  UNL1        0.1438
     45 H          61.9650   79.2584   12.0942 H       1  UNL1        0.1438
@<TRIPOS>BOND
     1    32    31    1
     2    32    33    1
     3    33    34    1
     4    34    35   ar
     5    35    36   ar
     6    36    37   ar
     7    37    38   ar
     8    38    39    1
     9    38    40   ar
    10    40    41   ar
    11    41    42   ar
    12    42    43   ar
    13    32    30    1
    14    30    29    1
    15    29    25    1
    16    25    26    2
    17    25    27    1
    18    25    24    1
    19    24     1    1
    20     1     2    1
    21     2     3    1
    22     3     4    1
    23     4     5    1
    24     5     6    1
    25     6     7    1
    26     7     8    1
    27     8     9    1
    28     9    10    1
    29    10    11    1
    30    11    12    1
    31    12    13    1
    32    13    14    1
    33    14    15    1
    34    15    16    1
    35    16    17    1
    36    17    18    1
    37    18    19    3
    38    19    20    1
    39    20    21    1
    40    20    22    1
    41    20    23    1
    42    43    34   ar
    43    43    37   ar
    44    39    44    1
    45    39    45    1
    46    27    28    1
