@<TRIPOS>MOLECULE
*****
 38 42 0 0 0
SMALL
GASTEIGER

@<TRIPOS>ATOM
      1 C          60.7046   87.7743    8.5736 C.ar    1  UNL1        0.0044
      2 C          60.1571   87.7355    7.1776 C.ar    1  UNL1        0.0001
      3 C          59.3476   88.8861    6.6572 C.ar    1  UNL1        0.0000
      4 C          59.0855   90.0755    7.5329 C.ar    1  UNL1        0.0001
      5 C          59.6330   90.1143    8.9289 C.ar    1  UNL1        0.0045
      6 C          60.4425   88.9637    9.4492 C.ar    1  UNL1        0.0536
      7 C          60.9900   89.0024   10.8453 C.2     1  UNL1        0.2490
      8 O          60.3648   88.1628   11.9196 O.2     1  UNL1       -0.2699
      9 N          62.1626   89.8808   11.1669 N.am    1  UNL1       -0.2758
     10 C          62.7877   90.7204   10.0926 C.3     1  UNL1        0.0974
     11 C          63.9603   91.5988   10.4142 C.3     1  UNL1        0.0651
     12 C          64.5078   91.6376   11.8102 C.3     1  UNL1        0.1693
     13 C          63.8826   90.7980   12.8846 C.3     1  UNL1        0.0651
     14 C          62.7100   89.9196   12.5629 C.3     1  UNL1        0.0974
     15 O          65.6803   92.5159   12.1319 O.3     1  UNL1       -0.4791
     16 C          66.2487   93.4229   11.0809 C.ar    1  UNL1        0.1385
     17 C          65.7828   94.8455   10.9862 C.ar    1  UNL1        0.0392
     18 C          66.3511   95.7524    9.9352 C.ar    1  UNL1        0.0327
     19 C          67.3853   95.2367    8.9790 C.ar    1  UNL1        0.1403
     20 F          67.9537   96.1436    7.9281 F       1  UNL1       -0.2042
     21 C          67.8512   93.8141    9.0738 C.ar    1  UNL1        0.0327
     22 C          67.2829   92.9072   10.1247 C.ar    1  UNL1        0.0392
     23 C          63.1331   84.3225   10.1347 C.ar    1  UNL1       -0.0061
     24 C          62.0755   84.9459   10.9966 C.ar    1  UNL1       -0.0029
     25 C          61.2659   86.0965   10.4762 C.ar    1  UNL1       -0.0003
     26 C          61.5141   86.6237    9.0940 C.ar    1  UNL1        0.0001
     27 C          62.5717   86.0003    8.2322 C.ar    1  UNL1       -0.0003
     28 C          63.3812   84.8497    8.7525 C.ar    1  UNL1       -0.0029
     29 C          63.9427   83.1719   10.6550 C.3     1  UNL1        0.0992
     30 C          64.1946   83.6743   15.8207 C.3     1  UNL1        0.0186
     31 C          63.8032   82.8793   14.6104 C.3     1  UNL1        0.0702
     32 C          64.0686   83.4230   13.2379 C.3     1  UNL1        0.0882
     33 N          63.6772   82.6281   12.0276 N.3     1  UNL1       -0.2666
     34 C          63.0203   81.2894   12.1898 C.3     1  UNL1        0.0882
     35 C          62.7548   80.7457   13.5623 C.3     1  UNL1        0.0702
     36 C          62.0979   79.4069   13.7246 C.3     1  UNL1        0.0186
     37 N          63.1463   81.5406   14.7726 N.3     1  UNL1       -0.2974
     38 H          63.7897   80.9602   15.3107 H       1  UNL1        0.1232
@<TRIPOS>BOND
     1    31    30    1
     2    31    32    1
     3    32    33    1
     4    33    29    1
     5    29    23    1
     6    23    24   ar
     7    24    25   ar
     8    25    26   ar
     9    26     1    1
    10     1     2   ar
    11     2     3   ar
    12     3     4   ar
    13     4     5   ar
    14     5     6   ar
    15     6     7    1
    16     7     8    2
    17     7     9   am
    18     9    10    1
    19    10    11    1
    20    11    12    1
    21    12    15    1
    22    15    16    1
    23    16    17   ar
    24    17    18   ar
    25    18    19   ar
    26    19    20    1
    27    19    21   ar
    28    21    22   ar
    29    12    13    1
    30    13    14    1
    31    26    27   ar
    32    27    28   ar
    33    33    34    1
    34    34    35    1
    35    35    36    1
    36    35    37    1
    37    37    31    1
    38    28    23   ar
    39     6     1   ar
    40    14     9    1
    41    22    16   ar
    42    37    38    1
@<TRIPOS>MOLECULE
*****
 38 42 0 0 0
SMALL
GASTEIGER

@<TRIPOS>ATOM
      1 C          60.7072   87.7697    8.5776 C.ar    1  UNL1        0.0044
      2 C          60.1600   87.7278    7.1815 C.ar    1  UNL1        0.0001
      3 C          59.3526   88.8783    6.6576 C.ar    1  UNL1        0.0000
      4 C          59.0923   90.0706    7.5297 C.ar    1  UNL1        0.0001
      5 C          59.6395   90.1125    8.9257 C.ar    1  UNL1        0.0045
      6 C          60.4469   88.9621    9.4496 C.ar    1  UNL1        0.0536
      7 C          60.9941   89.0040   10.8457 C.2     1  UNL1        0.2490
      8 O          60.3710   88.1640   11.9209 O.2     1  UNL1       -0.2699
      9 N          62.1642   89.8859   11.1664 N.am    1  UNL1       -0.2758
     10 C          62.7873   90.7259   10.0912 C.3     1  UNL1        0.0974
     11 C          63.9574   91.6078   10.4119 C.3     1  UNL1        0.0651
     12 C          64.5046   91.6497   11.8080 C.3     1  UNL1        0.1693
     13 C          63.8816   90.8097   12.8833 C.3     1  UNL1        0.0651
     14 C          62.7113   89.9278   12.5624 C.3     1  UNL1        0.0974
     15 O          65.6748   92.5316   12.1288 O.3     1  UNL1       -0.4791
     16 C          66.2430   93.4363   11.0758 C.ar    1  UNL1        0.1385
     17 C          67.2817   92.9203   10.1246 C.ar    1  UNL1        0.0392
     18 C          67.8499   93.8250    9.0717 C.ar    1  UNL1        0.0327
     19 C          67.3794   95.2456    8.9699 C.ar    1  UNL1        0.1403
     20 F          67.9477   96.1503    7.9169 F       1  UNL1       -0.2042
     21 C          66.3407   95.7616    9.9211 C.ar    1  UNL1        0.0327
     22 C          65.7725   94.8569   10.9740 C.ar    1  UNL1        0.0392
     23 C          63.1295   84.3184   10.1493 C.ar    1  UNL1       -0.0061
     24 C          63.3835   84.8454    8.7680 C.ar    1  UNL1       -0.0029
     25 C          62.5760   85.9959    8.2441 C.ar    1  UNL1       -0.0003
     26 C          61.5147   86.6193    9.1015 C.ar    1  UNL1        0.0001
     27 C          61.2608   86.0922   10.4826 C.ar    1  UNL1       -0.0003
     28 C          62.0682   84.9418   11.0066 C.ar    1  UNL1       -0.0029
     29 C          63.9370   83.1679   10.6732 C.3     1  UNL1        0.0992
     30 C          62.0973   79.4022   13.7449 C.3     1  UNL1        0.0186
     31 C          62.7483   80.7437   13.5819 C.3     1  UNL1        0.0702
     32 C          63.0171   81.2851   12.2091 C.3     1  UNL1        0.0882
     33 N          63.6682   82.6266   12.0461 N.3     1  UNL1       -0.2666
     34 C          64.0503   83.4267   13.2559 C.3     1  UNL1        0.0882
     35 C          63.7815   82.8853   14.6287 C.3     1  UNL1        0.0702
     36 C          64.1637   83.6855   15.8386 C.3     1  UNL1        0.0186
     37 N          63.1305   81.5439   14.7917 N.3     1  UNL1       -0.2974
     38 H          62.2755   81.6946   15.3271 H       1  UNL1        0.1232
@<TRIPOS>BOND
     1    31    30    1
     2    31    32    1
     3    32    33    1
     4    33    29    1
     5    29    23    1
     6    23    24   ar
     7    24    25   ar
     8    25    26   ar
     9    26     1    1
    10     1     2   ar
    11     2     3   ar
    12     3     4   ar
    13     4     5   ar
    14     5     6   ar
    15     6     7    1
    16     7     8    2
    17     7     9   am
    18     9    10    1
    19    10    11    1
    20    11    12    1
    21    12    15    1
    22    15    16    1
    23    16    17   ar
    24    17    18   ar
    25    18    19   ar
    26    19    20    1
    27    19    21   ar
    28    21    22   ar
    29    12    13    1
    30    13    14    1
    31    26    27   ar
    32    27    28   ar
    33    33    34    1
    34    34    35    1
    35    35    36    1
    36    35    37    1
    37    37    31    1
    38    28    23   ar
    39     6     1   ar
    40    14     9    1
    41    22    16   ar
    42    37    38    1
@<TRIPOS>MOLECULE
*****
 38 42 0 0 0
SMALL
GASTEIGER

@<TRIPOS>ATOM
      1 C          64.6759   91.0119   13.3123 C.ar    1  UNL1        0.0044
      2 C          65.6329   91.7281   12.4060 C.ar    1  UNL1        0.0001
      3 C          66.8025   92.4680   12.9843 C.ar    1  UNL1        0.0000
      4 C          67.0152   92.4917   14.4690 C.ar    1  UNL1        0.0001
      5 C          66.0583   91.7755   15.3753 C.ar    1  UNL1        0.0045
      6 C          64.8886   91.0356   14.7970 C.ar    1  UNL1        0.0536
      7 C          63.9317   90.3195   15.7033 C.2     1  UNL1        0.2490
      8 O          62.9885   91.1027   16.5676 O.2     1  UNL1       -0.2699
      9 N          63.9179   88.8201   15.7454 N.am    1  UNL1       -0.2758
     10 C          64.8611   88.0369   14.8811 C.3     1  UNL1        0.0974
     11 C          64.8473   86.5376   14.9231 C.3     1  UNL1        0.0651
     12 C          63.8904   85.8214   15.8294 C.3     1  UNL1        0.1693
     13 C          62.9472   86.6047   16.6937 C.3     1  UNL1        0.0651
     14 C          62.9610   88.1041   16.6517 C.3     1  UNL1        0.0974
     15 O          63.8766   84.3221   15.8715 O.3     1  UNL1       -0.4791
     16 C          63.6047   83.5392   14.6212 C.ar    1  UNL1        0.1385
     17 C          64.5402   83.6425   13.4533 C.ar    1  UNL1        0.0392
     18 C          64.2683   82.8597   12.2030 C.ar    1  UNL1        0.0327
     19 C          63.0610   81.9734   12.1207 C.ar    1  UNL1        0.1403
     20 F          62.7891   81.1905   10.8704 F       1  UNL1       -0.2042
     21 C          62.1255   81.8701   13.2886 C.ar    1  UNL1        0.0327
     22 C          62.3974   82.6530   14.5389 C.ar    1  UNL1        0.0392
     23 C          61.1669   88.7923   11.5773 C.ar    1  UNL1       -0.0061
     24 C          61.0415   90.2489   11.9127 C.ar    1  UNL1       -0.0029
     25 C          62.2111   90.9888   12.4911 C.ar    1  UNL1       -0.0003
     26 C          63.5063   90.2720   12.7340 C.ar    1  UNL1        0.0001
     27 C          63.6317   88.8154   12.3986 C.ar    1  UNL1       -0.0003
     28 C          62.4620   88.0755   11.8203 C.ar    1  UNL1       -0.0029
     29 C          59.9973   88.0524   10.9990 C.3     1  UNL1        0.0992
     30 C          60.5559   84.8996    6.9065 C.3     1  UNL1        0.0186
     31 C          60.1951   86.2406    7.4736 C.3     1  UNL1        0.0702
     32 C          60.2766   86.4760    8.9527 C.3     1  UNL1        0.0882
     33 N          59.9158   87.8170    9.5198 N.3     1  UNL1       -0.2666
     34 C          59.4734   88.9226    8.6077 C.3     1  UNL1        0.0882
     35 C          59.3919   88.6872    7.1285 C.3     1  UNL1        0.0702
     36 C          58.9496   89.7928    6.2164 C.3     1  UNL1        0.0186
     37 N          59.7527   87.3462    6.5615 N.3     1  UNL1       -0.2974
     38 H          60.5115   87.5017    5.8977 H       1  UNL1        0.1232
@<TRIPOS>BOND
     1    31    30    1
     2    31    32    1
     3    32    33    1
     4    33    29    1
     5    29    23    1
     6    23    24   ar
     7    24    25   ar
     8    25    26   ar
     9    26     1    1
    10     1     2   ar
    11     2     3   ar
    12     3     4   ar
    13     4     5   ar
    14     5     6   ar
    15     6     7    1
    16     7     8    2
    17     7     9   am
    18     9    10    1
    19    10    11    1
    20    11    12    1
    21    12    15    1
    22    15    16    1
    23    16    17   ar
    24    17    18   ar
    25    18    19   ar
    26    19    20    1
    27    19    21   ar
    28    21    22   ar
    29    12    13    1
    30    13    14    1
    31    26    27   ar
    32    27    28   ar
    33    33    34    1
    34    34    35    1
    35    35    36    1
    36    35    37    1
    37    37    31    1
    38    28    23   ar
    39     6     1   ar
    40    14     9    1
    41    22    16   ar
    42    37    38    1
@<TRIPOS>MOLECULE
*****
 38 42 0 0 0
SMALL
GASTEIGER

@<TRIPOS>ATOM
      1 C          60.7233   87.7451    8.5936 C.ar    1  UNL1        0.0044
      2 C          60.1123   87.6862    7.2249 C.ar    1  UNL1        0.0001
      3 C          59.3079   88.8439    6.7122 C.ar    1  UNL1        0.0000
      4 C          59.1145   90.0604    7.5683 C.ar    1  UNL1        0.0001
      5 C          59.7255   90.1192    8.9369 C.ar    1  UNL1        0.0045
      6 C          60.5299   88.9616    9.4496 C.ar    1  UNL1        0.0536
      7 C          61.1410   89.0205   10.8183 C.2     1  UNL1        0.2490
      8 O          60.6232   88.1311   11.9096 O.2     1  UNL1       -0.2699
      9 N          62.2696   89.9687   11.0956 N.am    1  UNL1       -0.2758
     10 C          62.7874   90.8580   10.0042 C.3     1  UNL1        0.0974
     11 C          63.9161   91.8062   10.2816 C.3     1  UNL1        0.0651
     12 C          64.5271   91.8651   11.6503 C.3     1  UNL1        0.1693
     13 C          64.0093   90.9757   12.7416 C.3     1  UNL1        0.0651
     14 C          62.8806   90.0275   12.4642 C.3     1  UNL1        0.0974
     15 O          65.6558   92.8133   11.9276 O.3     1  UNL1       -0.4791
     16 C          66.5039   92.6323   13.1515 C.ar    1  UNL1        0.1385
     17 C          67.8242   91.9275   13.0515 C.ar    1  UNL1        0.0392
     18 C          68.6723   91.7465   14.2754 C.ar    1  UNL1        0.0327
     19 C          68.2001   92.2702   15.5993 C.ar    1  UNL1        0.1403
     20 F          69.0482   92.0891   16.8231 F       1  UNL1       -0.2042
     21 C          66.8798   92.9749   15.6992 C.ar    1  UNL1        0.0327
     22 C          66.0317   93.1559   14.4754 C.ar    1  UNL1        0.0392
     23 C          63.1365   84.2722   10.1315 C.ar    1  UNL1       -0.0061
     24 C          62.0598   84.8739   10.9852 C.ar    1  UNL1       -0.0029
     25 C          61.2554   86.0315   10.4726 C.ar    1  UNL1       -0.0003
     26 C          61.5277   86.5875    9.1062 C.ar    1  UNL1        0.0001
     27 C          62.6044   85.9858    8.2526 C.ar    1  UNL1       -0.0003
     28 C          63.4088   84.8281    8.7653 C.ar    1  UNL1       -0.0029
     29 C          63.9409   83.1145   10.6442 C.3     1  UNL1        0.0992
     30 C          64.2049   83.6310   15.8079 C.3     1  UNL1        0.0186
     31 C          63.8151   82.8306   14.6007 C.3     1  UNL1        0.0702
     32 C          64.0729   83.3727   13.2261 C.3     1  UNL1        0.0882
     33 N          63.6831   82.5723   12.0188 N.3     1  UNL1       -0.2666
     34 C          63.0354   81.2298   12.1862 C.3     1  UNL1        0.0882
     35 C          62.7776   80.6876   13.5608 C.3     1  UNL1        0.0702
     36 C          62.1299   79.3450   13.7282 C.3     1  UNL1        0.0186
     37 N          63.1674   81.4880   14.7680 N.3     1  UNL1       -0.2974
     38 H          63.8162   80.9131   15.3056 H       1  UNL1        0.1232
@<TRIPOS>BOND
     1    31    30    1
     2    31    32    1
     3    32    33    1
     4    33    29    1
     5    29    23    1
     6    23    24   ar
     7    24    25   ar
     8    25    26   ar
     9    26     1    1
    10     1     2   ar
    11     2     3   ar
    12     3     4   ar
    13     4     5   ar
    14     5     6   ar
    15     6     7    1
    16     7     8    2
    17     7     9   am
    18     9    10    1
    19    10    11    1
    20    11    12    1
    21    12    15    1
    22    15    16    1
    23    16    17   ar
    24    17    18   ar
    25    18    19   ar
    26    19    20    1
    27    19    21   ar
    28    21    22   ar
    29    12    13    1
    30    13    14    1
    31    26    27   ar
    32    27    28   ar
    33    33    34    1
    34    34    35    1
    35    35    36    1
    36    35    37    1
    37    37    31    1
    38    28    23   ar
    39     6     1   ar
    40    14     9    1
    41    22    16   ar
    42    37    38    1
@<TRIPOS>MOLECULE
*****
 38 42 0 0 0
SMALL
GASTEIGER

@<TRIPOS>ATOM
      1 C          60.7847   87.7084    8.7622 C.ar    1  UNL1        0.0044
      2 C          60.1797   87.5971    7.3941 C.ar    1  UNL1        0.0001
      3 C          59.3449   88.7182    6.8497 C.ar    1  UNL1        0.0000
      4 C          59.1152   89.9506    7.6734 C.ar    1  UNL1        0.0001
      5 C          59.7203   90.0619    9.0415 C.ar    1  UNL1        0.0045
      6 C          60.5550   88.9408    9.5858 C.ar    1  UNL1        0.0536
      7 C          61.1601   89.0521   10.9539 C.2     1  UNL1        0.2490
      8 O          60.6237   88.2204   12.0811 O.2     1  UNL1       -0.2699
      9 N          62.3014   89.9952   11.1948 N.am    1  UNL1       -0.2758
     10 C          62.8377   90.8269   10.0676 C.3     1  UNL1        0.0974
     11 C          63.9790   91.7699   10.3084 C.3     1  UNL1        0.0651
     12 C          64.5841   91.8813   11.6765 C.3     1  UNL1        0.1693
     13 C          64.0477   91.0495   12.8037 C.3     1  UNL1        0.0651
     14 C          62.9063   90.1065   12.5628 C.3     1  UNL1        0.0974
     15 O          65.7254   92.8243   11.9174 O.3     1  UNL1       -0.4791
     16 C          66.5860   92.6646   13.1355 C.ar    1  UNL1        0.1385
     17 C          66.1399   93.2352   14.4490 C.ar    1  UNL1        0.0392
     18 C          67.0005   93.0755   15.6671 C.ar    1  UNL1        0.0327
     19 C          68.3072   92.3452   15.5718 C.ar    1  UNL1        0.1403
     20 F          69.1678   92.1855   16.7899 F       1  UNL1       -0.2042
     21 C          68.7533   91.7746   14.2583 C.ar    1  UNL1        0.0327
     22 C          67.8927   91.9343   13.0401 C.ar    1  UNL1        0.0392
     23 C          63.2889   84.3451   10.3953 C.ar    1  UNL1       -0.0061
     24 C          62.3022   85.0447   11.2825 C.ar    1  UNL1       -0.0029
     25 C          61.4674   86.1658   10.7381 C.ar    1  UNL1       -0.0003
     26 C          61.6195   86.5873    9.3066 C.ar    1  UNL1        0.0001
     27 C          62.6062   85.8878    8.4195 C.ar    1  UNL1       -0.0003
     28 C          63.4410   84.7667    8.9639 C.ar    1  UNL1       -0.0029
     29 C          64.1237   83.2240   10.9397 C.3     1  UNL1        0.0992
     30 C          62.8492   78.2589   10.0895 C.3     1  UNL1        0.0186
     31 C          62.8311   79.4719   10.9716 C.3     1  UNL1        0.0702
     32 C          63.4864   80.7414   10.5146 C.3     1  UNL1        0.0882
     33 N          63.4683   81.9545   11.3968 N.3     1  UNL1       -0.2666
     34 C          62.7948   81.8981   12.7358 C.3     1  UNL1        0.0882
     35 C          62.1395   80.6286   13.1928 C.3     1  UNL1        0.0702
     36 C          61.4660   80.5721   14.5320 C.3     1  UNL1        0.0186
     37 N          62.1576   79.4155   12.3107 N.3     1  UNL1       -0.2974
     38 H          61.1847   79.1607   12.1405 H       1  UNL1        0.1232
@<TRIPOS>BOND
     1    31    30    1
     2    31    32    1
     3    32    33    1
     4    33    29    1
     5    29    23    1
     6    23    24   ar
     7    24    25   ar
     8    25    26   ar
     9    26     1    1
    10     1     2   ar
    11     2     3   ar
    12     3     4   ar
    13     4     5   ar
    14     5     6   ar
    15     6     7    1
    16     7     8    2
    17     7     9   am
    18     9    10    1
    19    10    11    1
    20    11    12    1
    21    12    15    1
    22    15    16    1
    23    16    17   ar
    24    17    18   ar
    25    18    19   ar
    26    19    20    1
    27    19    21   ar
    28    21    22   ar
    29    12    13    1
    30    13    14    1
    31    26    27   ar
    32    27    28   ar
    33    33    34    1
    34    34    35    1
    35    35    36    1
    36    35    37    1
    37    37    31    1
    38    28    23   ar
    39     6     1   ar
    40    14     9    1
    41    22    16   ar
    42    37    38    1
@<TRIPOS>MOLECULE
*****
 38 42 0 0 0
SMALL
GASTEIGER

@<TRIPOS>ATOM
      1 C          62.0470   92.9107    1.7634 C.ar    1  UNL1        0.0044
      2 C          62.6126   91.7161    2.4727 C.ar    1  UNL1        0.0001
      3 C          61.9787   91.2275    3.7414 C.ar    1  UNL1        0.0000
      4 C          60.7792   91.9336    4.3007 C.ar    1  UNL1        0.0001
      5 C          60.2137   93.1281    3.5914 C.ar    1  UNL1        0.0045
      6 C          60.8476   93.6167    2.3228 C.ar    1  UNL1        0.0536
      7 C          60.2820   94.8114    1.6135 C.2     1  UNL1        0.2490
      8 O          60.7637   96.1884    1.9624 O.2     1  UNL1       -0.2699
      9 N          59.2347   94.6289    0.5552 N.am    1  UNL1       -0.2758
     10 C          58.7530   93.2520    0.2063 C.3     1  UNL1        0.0974
     11 C          57.7057   93.0695   -0.8520 C.3     1  UNL1        0.0651
     12 C          57.1401   94.2642   -1.5613 C.3     1  UNL1        0.1693
     13 C          57.6218   95.6412   -1.2123 C.3     1  UNL1        0.0651
     14 C          58.6692   95.8235   -0.1540 C.3     1  UNL1        0.0974
     15 O          56.0928   94.0818   -2.6195 O.3     1  UNL1       -0.4791
     16 C          56.4047   93.2902   -3.8548 C.ar    1  UNL1        0.1385
     17 C          56.0184   91.8431   -3.9357 C.ar    1  UNL1        0.0392
     18 C          56.3303   91.0514   -5.1710 C.ar    1  UNL1        0.0327
     19 C          57.0285   91.7069   -6.3255 C.ar    1  UNL1        0.1403
     20 F          57.3404   90.9153   -7.5608 F       1  UNL1       -0.2042
     21 C          57.4148   93.1541   -6.2446 C.ar    1  UNL1        0.0327
     22 C          57.1029   93.9457   -5.0093 C.ar    1  UNL1        0.0392
     23 C          63.9487   94.3764   -2.0426 C.ar    1  UNL1       -0.0061
     24 C          62.7840   93.4329   -2.1011 C.ar    1  UNL1       -0.0029
     25 C          62.1501   92.9444   -0.8324 C.ar    1  UNL1       -0.0003
     26 C          62.6809   93.3993    0.4947 C.ar    1  UNL1        0.0001
     27 C          63.8455   94.3428    0.5532 C.ar    1  UNL1       -0.0003
     28 C          64.4794   94.8313   -0.7154 C.ar    1  UNL1       -0.0029
     29 C          64.5826   94.8650   -3.3112 C.3     1  UNL1        0.0992
     30 C          61.4970   94.7447   -7.4904 C.3     1  UNL1        0.0186
     31 C          62.6562   94.1922   -6.7151 C.3     1  UNL1        0.0702
     32 C          63.0398   94.8048   -5.4008 C.3     1  UNL1        0.0882
     33 N          64.1990   94.2523   -4.6256 N.3     1  UNL1       -0.2666
     34 C          64.9746   93.0871   -5.1647 C.3     1  UNL1        0.0882
     35 C          64.5911   92.4744   -6.4790 C.3     1  UNL1        0.0702
     36 C          65.3667   91.3092   -7.0182 C.3     1  UNL1        0.0186
     37 N          63.4319   93.0270   -7.2542 N.3     1  UNL1       -0.2974
     38 H          62.7679   92.2623   -7.3761 H       1  UNL1        0.1232
@<TRIPOS>BOND
     1    31    30    1
     2    31    32    1
     3    32    33    1
     4    33    29    1
     5    29    23    1
     6    23    24   ar
     7    24    25   ar
     8    25    26   ar
     9    26     1    1
    10     1     2   ar
    11     2     3   ar
    12     3     4   ar
    13     4     5   ar
    14     5     6   ar
    15     6     7    1
    16     7     8    2
    17     7     9   am
    18     9    10    1
    19    10    11    1
    20    11    12    1
    21    12    15    1
    22    15    16    1
    23    16    17   ar
    24    17    18   ar
    25    18    19   ar
    26    19    20    1
    27    19    21   ar
    28    21    22   ar
    29    12    13    1
    30    13    14    1
    31    26    27   ar
    32    27    28   ar
    33    33    34    1
    34    34    35    1
    35    35    36    1
    36    35    37    1
    37    37    31    1
    38    28    23   ar
    39     6     1   ar
    40    14     9    1
    41    22    16   ar
    42    37    38    1
@<TRIPOS>MOLECULE
*****
 38 42 0 0 0
SMALL
GASTEIGER

@<TRIPOS>ATOM
      1 C          60.6344   87.6116    8.6604 C.ar    1  UNL1        0.0044
      2 C          60.2427   87.4247    7.2245 C.ar    1  UNL1        0.0001
      3 C          59.4064   88.4610    6.5342 C.ar    1  UNL1        0.0000
      4 C          58.9617   89.6843    7.2798 C.ar    1  UNL1        0.0001
      5 C          59.3534   89.8712    8.7157 C.ar    1  UNL1        0.0045
      6 C          60.1897   88.8348    9.4059 C.ar    1  UNL1        0.0536
      7 C          60.5814   89.0218   10.8418 C.2     1  UNL1        0.2490
      8 O          59.8111   88.3276   11.9258 O.2     1  UNL1       -0.2699
      9 N          61.7432   89.9028   11.1938 N.am    1  UNL1       -0.2758
     10 C          62.5134   90.5970   10.1098 C.3     1  UNL1        0.0974
     11 C          63.6752   91.4780   10.4618 C.3     1  UNL1        0.0651
     12 C          64.0669   91.6649   11.8977 C.3     1  UNL1        0.1693
     13 C          63.2966   90.9708   12.9816 C.3     1  UNL1        0.0651
     14 C          62.1348   90.0897   12.6296 C.3     1  UNL1        0.0974
     15 O          65.2287   92.5460   12.2496 O.3     1  UNL1       -0.4791
     16 C          66.4452   92.5691   11.3723 C.ar    1  UNL1        0.1385
     17 C          67.6644   91.7860   11.7599 C.ar    1  UNL1        0.0392
     18 C          68.8809   91.8092   10.8826 C.ar    1  UNL1        0.0327
     19 C          68.8781   92.6154    9.6177 C.ar    1  UNL1        0.1403
     20 F          70.0946   92.6386    8.7404 F       1  UNL1       -0.2042
     21 C          67.6589   93.3985    9.2302 C.ar    1  UNL1        0.0327
     22 C          66.4425   93.3754   10.1074 C.ar    1  UNL1        0.0392
     23 C          63.1434   84.5025   10.7312 C.ar    1  UNL1       -0.0061
     24 C          63.3656   84.7992    9.2777 C.ar    1  UNL1       -0.0029
     25 C          62.5292   85.8355    8.5874 C.ar    1  UNL1       -0.0003
     26 C          61.4707   86.5752    9.3507 C.ar    1  UNL1        0.0001
     27 C          61.2486   86.2785   10.8041 C.ar    1  UNL1       -0.0003
     28 C          62.0850   85.2422   11.4944 C.ar    1  UNL1       -0.0029
     29 C          63.9798   83.4661   11.4215 C.3     1  UNL1        0.0992
     30 C          61.7768   79.8147   14.3903 C.3     1  UNL1        0.0186
     31 C          62.3548   80.2449   13.0747 C.3     1  UNL1        0.0702
     32 C          62.8783   81.6404   12.9059 C.3     1  UNL1        0.0882
     33 N          63.4562   82.0706   11.5903 N.3     1  UNL1       -0.2666
     34 C          63.5107   81.1053   10.4434 C.3     1  UNL1        0.0882
     35 C          62.9872   79.7098   10.6123 C.3     1  UNL1        0.0702
     36 C          63.0417   78.7444    9.4654 C.3     1  UNL1        0.0186
     37 N          62.4093   79.2796   11.9279 N.3     1  UNL1       -0.2974
     38 H          62.9574   78.4791   12.2426 H       1  UNL1        0.1232
@<TRIPOS>BOND
     1    31    30    1
     2    31    32    1
     3    32    33    1
     4    33    29    1
     5    29    23    1
     6    23    24   ar
     7    24    25   ar
     8    25    26   ar
     9    26     1    1
    10     1     2   ar
    11     2     3   ar
    12     3     4   ar
    13     4     5   ar
    14     5     6   ar
    15     6     7    1
    16     7     8    2
    17     7     9   am
    18     9    10    1
    19    10    11    1
    20    11    12    1
    21    12    15    1
    22    15    16    1
    23    16    17   ar
    24    17    18   ar
    25    18    19   ar
    26    19    20    1
    27    19    21   ar
    28    21    22   ar
    29    12    13    1
    30    13    14    1
    31    26    27   ar
    32    27    28   ar
    33    33    34    1
    34    34    35    1
    35    35    36    1
    36    35    37    1
    37    37    31    1
    38    28    23   ar
    39     6     1   ar
    40    14     9    1
    41    22    16   ar
    42    37    38    1
@<TRIPOS>MOLECULE
*****
 38 42 0 0 0
SMALL
GASTEIGER

@<TRIPOS>ATOM
      1 C          62.4310   93.2192    2.0065 C.ar    1  UNL1        0.0044
      2 C          63.0878   92.0262    2.6353 C.ar    1  UNL1        0.0001
      3 C          62.3546   91.2249    3.6699 C.ar    1  UNL1        0.0000
      4 C          60.9646   91.6167    4.0757 C.ar    1  UNL1        0.0001
      5 C          60.3079   92.8097    3.4469 C.ar    1  UNL1        0.0045
      6 C          61.0411   93.6109    2.4123 C.ar    1  UNL1        0.0536
      7 C          60.3843   94.8040    1.7834 C.2     1  UNL1        0.2490
      8 O          60.6162   96.1733    2.3501 O.2     1  UNL1       -0.2699
      9 N          59.4956   94.6276    0.5880 N.am    1  UNL1       -0.2758
     10 C          59.2637   93.2583    0.0213 C.3     1  UNL1        0.0974
     11 C          58.3751   93.0820   -1.1742 C.3     1  UNL1        0.0651
     12 C          57.7183   94.2750   -1.8030 C.3     1  UNL1        0.1693
     13 C          57.9502   95.6443   -1.2363 C.3     1  UNL1        0.0651
     14 C          58.8389   95.8206   -0.0408 C.3     1  UNL1        0.0974
     15 O          56.8296   94.0987   -2.9985 O.3     1  UNL1       -0.4791
     16 C          55.4942   94.7800   -3.0473 C.ar    1  UNL1        0.1385
     17 C          54.6406   94.8464   -1.8157 C.ar    1  UNL1        0.0392
     18 C          53.3052   95.5277   -1.8645 C.ar    1  UNL1        0.0327
     19 C          52.8233   96.1426   -3.1450 C.ar    1  UNL1        0.1403
     20 F          51.4878   96.8239   -3.1938 F       1  UNL1       -0.2042
     21 C          53.6768   96.0761   -4.3766 C.ar    1  UNL1        0.0327
     22 C          55.0123   95.3948   -4.3278 C.ar    1  UNL1        0.0392
     23 C          64.6305   95.6230   -1.0974 C.ar    1  UNL1       -0.0061
     24 C          63.9589   94.3377   -1.4813 C.ar    1  UNL1       -0.0029
     25 C          63.2257   93.5365   -0.4467 C.ar    1  UNL1       -0.0003
     26 C          63.1641   94.0205    0.9718 C.ar    1  UNL1        0.0001
     27 C          63.8357   95.3056    1.3556 C.ar    1  UNL1       -0.0003
     28 C          64.5688   96.1069    0.3210 C.ar    1  UNL1       -0.0029
     29 C          65.3636   96.4242   -2.1321 C.3     1  UNL1        0.0992
     30 C          66.3748   95.9884   -7.2102 C.3     1  UNL1        0.0186
     31 C          65.3960   96.2054   -6.0945 C.3     1  UNL1        0.0702
     32 C          65.8692   96.2063   -4.6712 C.3     1  UNL1        0.0882
     33 N          64.8903   96.4233   -3.5555 N.3     1  UNL1       -0.2666
     34 C          63.4382   96.6394   -3.8632 C.3     1  UNL1        0.0882
     35 C          62.9650   96.6385   -5.2865 C.3     1  UNL1        0.0702
     36 C          61.5129   96.8546   -5.5943 C.3     1  UNL1        0.0186
     37 N          63.9439   96.4215   -6.4022 N.3     1  UNL1       -0.2974
     38 H          63.8897   97.2423   -7.0053 H       1  UNL1        0.1232
@<TRIPOS>BOND
     1    31    30    1
     2    31    32    1
     3    32    33    1
     4    33    29    1
     5    29    23    1
     6    23    24   ar
     7    24    25   ar
     8    25    26   ar
     9    26     1    1
    10     1     2   ar
    11     2     3   ar
    12     3     4   ar
    13     4     5   ar
    14     5     6   ar
    15     6     7    1
    16     7     8    2
    17     7     9   am
    18     9    10    1
    19    10    11    1
    20    11    12    1
    21    12    15    1
    22    15    16    1
    23    16    17   ar
    24    17    18   ar
    25    18    19   ar
    26    19    20    1
    27    19    21   ar
    28    21    22   ar
    29    12    13    1
    30    13    14    1
    31    26    27   ar
    32    27    28   ar
    33    33    34    1
    34    34    35    1
    35    35    36    1
    36    35    37    1
    37    37    31    1
    38    28    23   ar
    39     6     1   ar
    40    14     9    1
    41    22    16   ar
    42    37    38    1
@<TRIPOS>MOLECULE
*****
 38 42 0 0 0
SMALL
GASTEIGER

@<TRIPOS>ATOM
      1 C          62.2949   93.2394    2.0003 C.ar    1  UNL1        0.0044
      2 C          63.0310   92.1345    2.6986 C.ar    1  UNL1        0.0001
      3 C          62.3192   91.2760    3.7017 C.ar    1  UNL1        0.0000
      4 C          60.8713   91.5224    4.0066 C.ar    1  UNL1        0.0001
      5 C          60.1352   92.6271    3.3083 C.ar    1  UNL1        0.0045
      6 C          60.8470   93.4856    2.3051 C.ar    1  UNL1        0.0536
      7 C          60.1109   94.5905    1.6068 C.2     1  UNL1        0.2490
      8 O          59.8224   95.8731    2.3291 O.2     1  UNL1       -0.2699
      9 N          59.6632   94.4126    0.1863 N.am    1  UNL1       -0.2758
     10 C          59.9517   93.1300   -0.5360 C.3     1  UNL1        0.0974
     11 C          59.5040   92.9522   -1.9566 C.3     1  UNL1        0.0651
     12 C          58.7679   94.0570   -2.6549 C.3     1  UNL1        0.1693
     13 C          58.4795   95.3396   -1.9326 C.3     1  UNL1        0.0651
     14 C          58.9271   95.5174   -0.5120 C.3     1  UNL1        0.0974
     15 O          58.3203   93.8792   -4.0754 O.3     1  UNL1       -0.4791
     16 C          57.2908   92.8418   -4.4131 C.ar    1  UNL1        0.1385
     17 C          56.7499   92.7485   -5.8090 C.ar    1  UNL1        0.0392
     18 C          55.7204   91.7112   -6.1467 C.ar    1  UNL1        0.0327
     19 C          55.2318   90.7671   -5.0885 C.ar    1  UNL1        0.1403
     20 F          54.2023   89.7297   -5.4261 F       1  UNL1       -0.2042
     21 C          55.7727   90.8604   -3.6925 C.ar    1  UNL1        0.0327
     22 C          56.8022   91.8978   -3.3548 C.ar    1  UNL1        0.0392
     23 C          64.4303   95.8148   -1.0092 C.ar    1  UNL1       -0.0061
     24 C          64.0591   94.4040   -1.3585 C.ar    1  UNL1       -0.0029
     25 C          63.3472   93.5456   -0.3554 C.ar    1  UNL1       -0.0003
     26 C          63.0067   94.0978    0.9971 C.ar    1  UNL1        0.0001
     27 C          63.3779   95.5086    1.3463 C.ar    1  UNL1       -0.0003
     28 C          64.0898   96.3670    0.3432 C.ar    1  UNL1       -0.0029
     29 C          65.1421   96.6733   -2.0124 C.3     1  UNL1        0.0992
     30 C          66.3549   96.4011   -7.0577 C.3     1  UNL1        0.0186
     31 C          65.3246   96.5179   -5.9738 C.3     1  UNL1        0.0702
     32 C          65.7485   96.5372   -4.5351 C.3     1  UNL1        0.0882
     33 N          64.7182   96.6540   -3.4511 N.3     1  UNL1       -0.2666
     34 C          63.2641   96.7516   -3.8059 C.3     1  UNL1        0.0882
     35 C          62.8402   96.7323   -5.2446 C.3     1  UNL1        0.0702
     36 C          61.3860   96.8298   -5.5995 C.3     1  UNL1        0.0186
     37 N          63.8705   96.6155   -6.3286 N.3     1  UNL1       -0.2974
     38 H          63.7670   97.4378   -6.9231 H       1  UNL1        0.1232
@<TRIPOS>BOND
     1    31    30    1
     2    31    32    1
     3    32    33    1
     4    33    29    1
     5    29    23    1
     6    23    24   ar
     7    24    25   ar
     8    25    26   ar
     9    26     1    1
    10     1     2   ar
    11     2     3   ar
    12     3     4   ar
    13     4     5   ar
    14     5     6   ar
    15     6     7    1
    16     7     8    2
    17     7     9   am
    18     9    10    1
    19    10    11    1
    20    11    12    1
    21    12    15    1
    22    15    16    1
    23    16    17   ar
    24    17    18   ar
    25    18    19   ar
    26    19    20    1
    27    19    21   ar
    28    21    22   ar
    29    12    13    1
    30    13    14    1
    31    26    27   ar
    32    27    28   ar
    33    33    34    1
    34    34    35    1
    35    35    36    1
    36    35    37    1
    37    37    31    1
    38    28    23   ar
    39     6     1   ar
    40    14     9    1
    41    22    16   ar
    42    37    38    1
