@<TRIPOS>MOLECULE
*****
 26 28 0 0 0
SMALL
GASTEIGER

@<TRIPOS>ATOM
      1 N          66.1776   92.4161   12.5727 N.am    1  UNL1       -0.2575
      2 C          66.8108   92.4174   13.9324 C.2     1  UNL1        0.2297
      3 O          68.0722   93.1931   14.1717 O.2     1  UNL1       -0.2745
      4 C          66.1826   91.6430   15.0530 C.3     1  UNL1        0.0903
      5 C          64.9213   90.8673   14.8138 C.3     1  UNL1        0.0373
      6 C          64.2881   90.8660   13.4540 C.ar    1  UNL1       -0.0046
      7 C          63.0267   90.0903   13.2148 C.ar    1  UNL1        0.0371
      8 C          62.3936   90.0890   11.8550 C.ar    1  UNL1        0.1354
      9 C          63.0217   90.8634   10.7344 C.ar    1  UNL1        0.0414
     10 C          64.2831   91.6391   10.9736 C.ar    1  UNL1        0.0181
     11 C          64.9162   91.6404   12.3334 C.ar    1  UNL1        0.0501
     12 N          61.1321   89.3133   11.6157 N.pl3   1  UNL1       -0.1990
     13 H          60.6735   88.8749   12.3686 H       1  UNL1        0.2985
     14 C          60.5695   89.2055   10.2294 C.2     1  UNL1        0.3224
     15 N          59.8075   90.3541    9.6379 N.2     1  UNL1       -0.0985
     16 H          59.6766   91.1788   10.1595 H       1  UNL1        0.3633
     17 C          60.7690   87.9491    9.4347 C.ar    1  UNL1        0.1114
     18 C          61.9829   87.0686    9.4672 C.ar    1  UNL1        0.0144
     19 C          61.7537   85.9279    8.5205 C.ar    1  UNL1        0.0077
     20 C          60.3980   86.1034    7.9028 C.ar    1  UNL1        0.0357
     21 S          59.7895   87.3525    8.4679 S.2     1  UNL1       -0.0792
     22 C          66.8058   93.1905   11.4521 C.3     1  UNL1        0.1155
     23 C          66.4668   94.6390   11.2591 C.3     1  UNL1        0.0943
     24 C          67.8358   94.6676    9.0512 C.3     1  UNL1        0.0897
     25 N          67.0164   95.3873   10.0810 N.3     1  UNL1       -0.2688
     26 C          66.7465   96.8554    9.9327 C.3     1  UNL1        0.0897
@<TRIPOS>BOND
     1    24    25    1
     2    25    26    1
     3    25    23    1
     4    23    22    1
     5    22     1    1
     6     1     2   am
     7     2     3    2
     8     2     4    1
     9     4     5    1
    10     5     6    1
    11     6     7   ar
    12     7     8   ar
    13     8    12    1
    14    12    14    1
    15    14    15    2
    16    14    17    1
    17    17    18   ar
    18    18    19   ar
    19    19    20   ar
    20    20    21   ar
    21     8     9   ar
    22     9    10   ar
    23    10    11   ar
    24    11     1    1
    25    11     6   ar
    26    21    17   ar
    27    12    13    1
    28    15    16    1
@<TRIPOS>MOLECULE
*****
 26 28 0 0 0
SMALL
GASTEIGER

@<TRIPOS>ATOM
      1 N          65.2045   92.4785   12.1251 N.am    1  UNL1       -0.2575
      2 C          66.0272   92.5436   13.3776 C.2     1  UNL1        0.2297
      3 O          66.9813   93.6814   13.5900 O.2     1  UNL1       -0.2745
      4 C          65.8959   91.4708   14.4178 C.3     1  UNL1        0.0903
      5 C          64.9418   90.3330   14.2054 C.3     1  UNL1        0.0373
      6 C          64.1191   90.2679   12.9528 C.ar    1  UNL1       -0.0046
      7 C          63.1650   89.1301   12.7405 C.ar    1  UNL1        0.0371
      8 C          62.3424   89.0650   11.4879 C.ar    1  UNL1        0.1354
      9 C          62.4737   90.1378   10.4478 C.ar    1  UNL1        0.0414
     10 C          63.4277   91.2756   10.6601 C.ar    1  UNL1        0.0181
     11 C          64.2504   91.3407   11.9127 C.ar    1  UNL1        0.0501
     12 N          61.3883   87.9272   11.2755 N.pl3   1  UNL1       -0.1990
     13 H          60.6196   87.8100   11.8794 H       1  UNL1        0.2985
     14 C          61.6053   86.9679   10.1429 C.2     1  UNL1        0.3224
     15 N          61.0612   87.2807    8.7805 N.2     1  UNL1       -0.0985
     16 H          60.5617   88.1155    8.6296 H       1  UNL1        0.3633
     17 C          62.3664   85.6960   10.3728 C.ar    1  UNL1        0.1114
     18 C          63.0737   84.8899    9.3240 C.ar    1  UNL1        0.0144
     19 C          63.6982   83.7025    9.9948 C.ar    1  UNL1        0.0077
     20 C          63.3769   83.7746   11.4582 C.ar    1  UNL1        0.0357
     21 S          62.5537   85.0067   11.6918 S.2     1  UNL1       -0.0792
     22 C          65.3359   93.5513   11.0849 C.3     1  UNL1        0.1155
     23 C          66.4707   93.5106   10.1047 C.3     1  UNL1        0.0943
     24 C          67.6356   94.7891    8.1661 C.3     1  UNL1        0.0897
     25 N          67.0112   94.7863    9.5299 N.3     1  UNL1       -0.2688
     26 C          66.9272   96.0593   10.3189 C.3     1  UNL1        0.0897
@<TRIPOS>BOND
     1    24    25    1
     2    25    26    1
     3    25    23    1
     4    23    22    1
     5    22     1    1
     6     1     2   am
     7     2     3    2
     8     2     4    1
     9     4     5    1
    10     5     6    1
    11     6     7   ar
    12     7     8   ar
    13     8    12    1
    14    12    14    1
    15    14    15    2
    16    14    17    1
    17    17    18   ar
    18    18    19   ar
    19    19    20   ar
    20    20    21   ar
    21     8     9   ar
    22     9    10   ar
    23    10    11   ar
    24    11     1    1
    25    11     6   ar
    26    21    17   ar
    27    12    13    1
    28    15    16    1
@<TRIPOS>MOLECULE
*****
 26 28 0 0 0
SMALL
GASTEIGER

@<TRIPOS>ATOM
      1 N          63.3682   85.1201   12.8339 N.am    1  UNL1       -0.2575
      2 C          62.6803   84.6117   11.6017 C.2     1  UNL1        0.2297
      3 O          62.5610   83.1353   11.3645 O.2     1  UNL1       -0.2745
      4 C          62.1118   85.5795   10.6067 C.3     1  UNL1        0.0903
      5 C          62.2311   87.0558   10.8439 C.3     1  UNL1        0.0373
      6 C          62.9190   87.5643   12.0761 C.ar    1  UNL1       -0.0046
      7 C          63.0383   89.0406   12.3133 C.ar    1  UNL1        0.0371
      8 C          63.7261   89.5490   13.5455 C.ar    1  UNL1        0.1354
      9 C          64.2946   88.5812   14.5405 C.ar    1  UNL1        0.0414
     10 C          64.1753   87.1049   14.3033 C.ar    1  UNL1        0.0181
     11 C          63.4875   86.5965   13.0711 C.ar    1  UNL1        0.0501
     12 N          63.8454   91.0254   13.7827 N.pl3   1  UNL1       -0.1990
     13 H          63.1383   91.5040   14.2728 H       1  UNL1        0.2985
     14 C          65.0421   91.7726   13.2731 C.2     1  UNL1        0.3224
     15 N          65.0968   92.2135   11.8404 N.2     1  UNL1       -0.0985
     16 H          64.3473   92.0125   11.2345 H       1  UNL1        0.3633
     17 C          66.1841   92.0788   14.1962 C.ar    1  UNL1        0.1114
     18 C          66.0690   92.5058   15.6295 C.ar    1  UNL1        0.0144
     19 C          67.4554   92.7027   16.1673 C.ar    1  UNL1        0.0077
     20 C          68.4273   92.3974   15.0662 C.ar    1  UNL1        0.0357
     21 S          67.6416   92.0118   13.8481 S.2     1  UNL1       -0.0792
     22 C          63.9367   84.1523   13.8289 C.3     1  UNL1        0.1155
     23 C          63.0201   83.2820   14.6368 C.3     1  UNL1        0.0943
     24 C          61.3774   81.3004   14.2834 C.3     1  UNL1        0.0897
     25 N          62.7651   81.8655   14.2141 N.3     1  UNL1       -0.2688
     26 C          63.8980   81.0142   13.7222 C.3     1  UNL1        0.0897
@<TRIPOS>BOND
     1    24    25    1
     2    25    26    1
     3    25    23    1
     4    23    22    1
     5    22     1    1
     6     1     2   am
     7     2     3    2
     8     2     4    1
     9     4     5    1
    10     5     6    1
    11     6     7   ar
    12     7     8   ar
    13     8    12    1
    14    12    14    1
    15    14    15    2
    16    14    17    1
    17    17    18   ar
    18    18    19   ar
    19    19    20   ar
    20    20    21   ar
    21     8     9   ar
    22     9    10   ar
    23    10    11   ar
    24    11     1    1
    25    11     6   ar
    26    21    17   ar
    27    12    13    1
    28    15    16    1
@<TRIPOS>MOLECULE
*****
 26 28 0 0 0
SMALL
GASTEIGER

@<TRIPOS>ATOM
      1 N          61.4187   86.9677   10.2690 N.am    1  UNL1       -0.2575
      2 C          60.5097   87.1923    9.0972 C.2     1  UNL1        0.2297
      3 O          59.9035   86.0208    8.3828 O.2     1  UNL1       -0.2745
      4 C          60.2069   88.5883    8.6396 C.3     1  UNL1        0.0903
      5 C          60.8131   89.7598    9.3538 C.3     1  UNL1        0.0373
      6 C          61.7221   89.5352   10.5258 C.ar    1  UNL1       -0.0046
      7 C          62.3282   90.7067   11.2401 C.ar    1  UNL1        0.0371
      8 C          63.2372   90.4821   12.4119 C.ar    1  UNL1        0.1354
      9 C          63.5400   89.0861   12.8695 C.ar    1  UNL1        0.0414
     10 C          62.9338   87.9146   12.1552 C.ar    1  UNL1        0.0181
     11 C          62.0249   88.1392   10.9834 C.ar    1  UNL1        0.0501
     12 N          63.8434   91.6536   13.1263 N.pl3   1  UNL1       -0.1990
     13 H          63.3412   92.1081   13.8407 H       1  UNL1        0.2985
     14 C          65.2147   92.1325   12.7520 C.2     1  UNL1        0.3224
     15 N          65.5566   92.3775   11.3121 N.2     1  UNL1       -0.0985
     16 H          64.8809   92.2240   10.6128 H       1  UNL1        0.3633
     17 C          66.2442   92.3664   13.8176 C.ar    1  UNL1        0.1114
     18 C          66.9538   91.3058   14.6059 C.ar    1  UNL1        0.0144
     19 C          67.8930   91.9858   15.5574 C.ar    1  UNL1        0.0077
     20 C          67.7639   93.4668   15.3572 C.ar    1  UNL1        0.0357
     21 S          66.7448   93.7020   14.2819 S.2     1  UNL1       -0.0792
     22 C          61.7215   85.5717   10.7266 C.3     1  UNL1        0.1155
     23 C          62.8964   84.8337   10.1564 C.3     1  UNL1        0.0943
     24 C          63.7094   83.9510   12.4606 C.3     1  UNL1        0.0897
     25 N          63.5935   83.7872   10.9741 N.3     1  UNL1       -0.2688
     26 C          64.1748   82.5768   10.3053 C.3     1  UNL1        0.0897
@<TRIPOS>BOND
     1    24    25    1
     2    25    26    1
     3    25    23    1
     4    23    22    1
     5    22     1    1
     6     1     2   am
     7     2     3    2
     8     2     4    1
     9     4     5    1
    10     5     6    1
    11     6     7   ar
    12     7     8   ar
    13     8    12    1
    14    12    14    1
    15    14    15    2
    16    14    17    1
    17    17    18   ar
    18    18    19   ar
    19    19    20   ar
    20    20    21   ar
    21     8     9   ar
    22     9    10   ar
    23    10    11   ar
    24    11     1    1
    25    11     6   ar
    26    21    17   ar
    27    12    13    1
    28    15    16    1
@<TRIPOS>MOLECULE
*****
 26 28 0 0 0
SMALL
GASTEIGER

@<TRIPOS>ATOM
      1 N          61.9126   87.4131   11.0902 N.am    1  UNL1       -0.2575
      2 C          61.0992   87.7728    9.8824 C.2     1  UNL1        0.2297
      3 O          60.3059   86.7171    9.1708 O.2     1  UNL1       -0.2745
      4 C          61.0790   89.1881    9.3860 C.3     1  UNL1        0.0903
      5 C          61.8722   90.2438   10.0975 C.3     1  UNL1        0.0373
      6 C          62.6857   89.8842   11.3054 C.ar    1  UNL1       -0.0046
      7 C          63.4789   90.9399   12.0169 C.ar    1  UNL1        0.0371
      8 C          64.2923   90.5802   13.2248 C.ar    1  UNL1        0.1354
      9 C          64.3125   89.1649   13.7211 C.ar    1  UNL1        0.0414
     10 C          63.5193   88.1092   13.0096 C.ar    1  UNL1        0.0181
     11 C          62.7059   88.4688   11.8018 C.ar    1  UNL1        0.0501
     12 N          65.0856   91.6359   13.9363 N.pl3   1  UNL1       -0.1990
     13 H          64.7077   92.0876   14.7253 H       1  UNL1        0.2985
     14 C          66.4547   92.0034   13.4458 C.2     1  UNL1        0.3224
     15 N          67.6678   91.5749   14.2171 N.2     1  UNL1       -0.0985
     16 H          67.5654   91.0524   15.0452 H       1  UNL1        0.3633
     17 C          66.6107   92.7994   12.1841 C.ar    1  UNL1        0.1114
     18 C          67.1960   92.3032   10.8952 C.ar    1  UNL1        0.0144
     19 C          67.1558   93.4285    9.9042 C.ar    1  UNL1        0.0077
     20 C          66.5456   94.6203   10.5806 C.ar    1  UNL1        0.0357
     21 S          66.2087   94.2315   11.9896 S.2     1  UNL1       -0.0792
     22 C          61.9328   85.9978   11.5866 C.3     1  UNL1        0.1155
     23 C          62.6757   84.9444   10.8193 C.3     1  UNL1        0.0943
     24 C          62.8694   83.4936   12.9658 C.3     1  UNL1        0.0897
     25 N          63.2363   83.7509   11.5343 N.3     1  UNL1       -0.2688
     26 C          64.1637   82.8146   10.8178 C.3     1  UNL1        0.0897
@<TRIPOS>BOND
     1    24    25    1
     2    25    26    1
     3    25    23    1
     4    23    22    1
     5    22     1    1
     6     1     2   am
     7     2     3    2
     8     2     4    1
     9     4     5    1
    10     5     6    1
    11     6     7   ar
    12     7     8   ar
    13     8    12    1
    14    12    14    1
    15    14    15    2
    16    14    17    1
    17    17    18   ar
    18    18    19   ar
    19    19    20   ar
    20    20    21   ar
    21     8     9   ar
    22     9    10   ar
    23    10    11   ar
    24    11     1    1
    25    11     6   ar
    26    21    17   ar
    27    12    13    1
    28    15    16    1
@<TRIPOS>MOLECULE
*****
 26 28 0 0 0
SMALL
GASTEIGER

@<TRIPOS>ATOM
      1 N          63.2663   89.8061   12.2448 N.am    1  UNL1       -0.2575
      2 C          62.5643   89.8887   10.9218 C.2     1  UNL1        0.2297
      3 O          62.3098   91.2252   10.2900 O.2     1  UNL1       -0.2745
      4 C          62.1168   88.6350   10.2306 C.3     1  UNL1        0.0903
      5 C          62.3712   87.2985   10.8623 C.3     1  UNL1        0.0373
      6 C          63.0732   87.2158   12.1854 C.ar    1  UNL1       -0.0046
      7 C          63.3277   85.8794   12.8171 C.ar    1  UNL1        0.0371
      8 C          64.0296   85.7967   14.1401 C.ar    1  UNL1        0.1354
      9 C          64.4772   87.0505   14.8314 C.ar    1  UNL1        0.0414
     10 C          64.2227   88.3869   14.1996 C.ar    1  UNL1        0.0181
     11 C          63.5207   88.4696   12.8766 C.ar    1  UNL1        0.0501
     12 N          64.2841   84.4602   14.7719 N.pl3   1  UNL1       -0.1990
     13 H          65.2050   84.1819   14.9810 H       1  UNL1        0.2985
     14 C          63.1355   83.5478   15.0852 C.2     1  UNL1        0.3224
     15 N          62.2606   83.8237   16.2720 N.2     1  UNL1       -0.0985
     16 H          62.4403   84.6036   16.8454 H       1  UNL1        0.3633
     17 C          62.8617   82.3596   14.2116 C.ar    1  UNL1        0.1114
     18 C          61.7317   81.3868   14.3751 C.ar    1  UNL1        0.0144
     19 C          61.8414   80.3616   13.2857 C.ar    1  UNL1        0.0077
     20 C          63.0393   80.7007   12.4489 C.ar    1  UNL1        0.0357
     21 S          63.6698   81.9356   13.0212 S.2     1  UNL1       -0.0792
     22 C          63.7138   91.0598   12.9360 C.3     1  UNL1        0.1155
     23 C          64.9293   91.7916   12.4492 C.3     1  UNL1        0.0943
     24 C          66.4477   93.7051   13.3340 C.3     1  UNL1        0.0897
     25 N          65.9450   92.2953   13.4314 N.3     1  UNL1       -0.2688
     26 C          66.4579   91.3890   14.5111 C.3     1  UNL1        0.0897
@<TRIPOS>BOND
     1    24    25    1
     2    25    26    1
     3    25    23    1
     4    23    22    1
     5    22     1    1
     6     1     2   am
     7     2     3    2
     8     2     4    1
     9     4     5    1
    10     5     6    1
    11     6     7   ar
    12     7     8   ar
    13     8    12    1
    14    12    14    1
    15    14    15    2
    16    14    17    1
    17    17    18   ar
    18    18    19   ar
    19    19    20   ar
    20    20    21   ar
    21     8     9   ar
    22     9    10   ar
    23    10    11   ar
    24    11     1    1
    25    11     6   ar
    26    21    17   ar
    27    12    13    1
    28    15    16    1
@<TRIPOS>MOLECULE
*****
 26 28 0 0 0
SMALL
GASTEIGER

@<TRIPOS>ATOM
      1 N          63.0102   85.5693   12.4845 N.am    1  UNL1       -0.2575
      2 C          63.5358   84.4860   13.3789 C.2     1  UNL1        0.2297
      3 O          63.2608   83.0472   13.0556 O.2     1  UNL1       -0.2745
      4 C          64.3364   84.8413   14.5966 C.3     1  UNL1        0.0903
      5 C          64.6114   86.2799   14.9199 C.3     1  UNL1        0.0373
      6 C          64.0858   87.3634   14.0255 C.ar    1  UNL1       -0.0046
      7 C          64.3607   88.8021   14.3488 C.ar    1  UNL1        0.0371
      8 C          63.8351   89.8854   13.4544 C.ar    1  UNL1        0.1354
      9 C          63.0345   89.5301   12.2367 C.ar    1  UNL1        0.0414
     10 C          62.7596   88.0915   11.9133 C.ar    1  UNL1        0.0181
     11 C          63.2852   87.0081   12.8077 C.ar    1  UNL1        0.0501
     12 N          64.1101   91.3242   13.7777 N.pl3   1  UNL1       -0.1990
     13 H          63.8867   92.0267   13.1251 H       1  UNL1        0.2985
     14 C          64.7254   91.6925   15.0952 C.2     1  UNL1        0.3224
     15 N          63.8866   91.6994   16.3388 N.2     1  UNL1       -0.0985
     16 H          62.9324   91.4623   16.2903 H       1  UNL1        0.3633
     17 C          66.1793   92.0538   15.1691 C.ar    1  UNL1        0.1114
     18 C          66.8554   92.7607   16.3062 C.ar    1  UNL1        0.0144
     19 C          68.3064   92.9155   15.9588 C.ar    1  UNL1        0.0077
     20 C          68.5270   92.3042   14.6068 C.ar    1  UNL1        0.0357
     21 S          67.2124   91.7716   14.1188 S.2     1  UNL1       -0.0792
     22 C          62.2096   85.2140   11.2667 C.3     1  UNL1        0.1155
     23 C          62.8995   84.9976    9.9524 C.3     1  UNL1        0.0943
     24 C          62.7509   84.9740    7.3587 C.3     1  UNL1        0.0897
     25 N          62.2644   85.4830    8.6832 N.3     1  UNL1       -0.2688
     26 C          61.1427   86.4775    8.7384 C.3     1  UNL1        0.0897
@<TRIPOS>BOND
     1    24    25    1
     2    25    26    1
     3    25    23    1
     4    23    22    1
     5    22     1    1
     6     1     2   am
     7     2     3    2
     8     2     4    1
     9     4     5    1
    10     5     6    1
    11     6     7   ar
    12     7     8   ar
    13     8    12    1
    14    12    14    1
    15    14    15    2
    16    14    17    1
    17    17    18   ar
    18    18    19   ar
    19    19    20   ar
    20    20    21   ar
    21     8     9   ar
    22     9    10   ar
    23    10    11   ar
    24    11     1    1
    25    11     6   ar
    26    21    17   ar
    27    12    13    1
    28    15    16    1
@<TRIPOS>MOLECULE
*****
 26 28 0 0 0
SMALL
GASTEIGER

@<TRIPOS>ATOM
      1 N          62.8623   85.8054   12.3434 N.am    1  UNL1       -0.2575
      2 C          63.3713   84.7811   13.3138 C.2     1  UNL1        0.2297
      3 O          63.0913   83.3255   13.0837 O.2     1  UNL1       -0.2745
      4 C          64.1604   85.2124   14.5144 C.3     1  UNL1        0.0903
      5 C          64.4404   86.6679   14.7446 C.3     1  UNL1        0.0373
      6 C          63.9314   87.6923   13.7741 C.ar    1  UNL1       -0.0046
      7 C          64.2114   89.1478   14.0043 C.ar    1  UNL1        0.0371
      8 C          63.7024   90.1720   13.0338 C.ar    1  UNL1        0.1354
      9 C          62.9134   89.7407   11.8333 C.ar    1  UNL1        0.0414
     10 C          62.6333   88.2852   11.6031 C.ar    1  UNL1        0.0181
     11 C          63.1423   87.2610   12.5735 C.ar    1  UNL1        0.0501
     12 N          63.9825   91.6276   13.2640 N.pl3   1  UNL1       -0.1990
     13 H          63.2928   92.2041   13.6656 H       1  UNL1        0.2985
     14 C          65.3133   92.2048   12.8822 C.2     1  UNL1        0.3224
     15 N          65.6005   92.5440   11.4495 N.2     1  UNL1       -0.0985
     16 H          64.9156   92.3877   10.7598 H       1  UNL1        0.3633
     17 C          66.3569   92.4428   13.9330 C.ar    1  UNL1        0.1114
     18 C          67.1298   91.3851   14.6635 C.ar    1  UNL1        0.0144
     19 C          68.0614   92.0689   15.6198 C.ar    1  UNL1        0.0077
     20 C          67.8641   93.5494   15.4804 C.ar    1  UNL1        0.0357
     21 S          66.8107   93.7805   14.4379 S.2     1  UNL1       -0.0792
     22 C          62.0732   85.3741   11.1428 C.3     1  UNL1        0.1155
     23 C          62.7609   85.1785    9.8241 C.3     1  UNL1        0.0943
     24 C          60.9198   86.5320    8.5878 C.3     1  UNL1        0.0897
     25 N          62.0677   85.5671    8.5519 N.3     1  UNL1       -0.2688
     26 C          62.5225   84.9909    7.2438 C.3     1  UNL1        0.0897
@<TRIPOS>BOND
     1    24    25    1
     2    25    26    1
     3    25    23    1
     4    23    22    1
     5    22     1    1
     6     1     2   am
     7     2     3    2
     8     2     4    1
     9     4     5    1
    10     5     6    1
    11     6     7   ar
    12     7     8   ar
    13     8    12    1
    14    12    14    1
    15    14    15    2
    16    14    17    1
    17    17    18   ar
    18    18    19   ar
    19    19    20   ar
    20    20    21   ar
    21     8     9   ar
    22     9    10   ar
    23    10    11   ar
    24    11     1    1
    25    11     6   ar
    26    21    17   ar
    27    12    13    1
    28    15    16    1
@<TRIPOS>MOLECULE
*****
 26 28 0 0 0
SMALL
GASTEIGER

@<TRIPOS>ATOM
      1 N          62.9088   85.5702   12.3157 N.am    1  UNL1       -0.2575
      2 C          63.3621   84.3741   13.0991 C.2     1  UNL1        0.2297
      3 O          63.0100   82.9933   12.6307 O.2     1  UNL1       -0.2745
      4 C          64.1675   84.5588   14.3510 C.3     1  UNL1        0.0903
      5 C          64.5196   85.9396   14.8195 C.3     1  UNL1        0.0373
      6 C          64.0663   87.1357   14.0360 C.ar    1  UNL1       -0.0046
      7 C          64.4184   88.5165   14.5044 C.ar    1  UNL1        0.0371
      8 C          63.9651   89.7126   13.7210 C.ar    1  UNL1        0.1354
      9 C          63.1598   89.5279   12.4691 C.ar    1  UNL1        0.0414
     10 C          62.8077   88.1472   12.0006 C.ar    1  UNL1        0.0181
     11 C          63.2609   86.9511   12.7841 C.ar    1  UNL1        0.0501
     12 N          64.3172   91.0934   14.1894 N.pl3   1  UNL1       -0.1990
     13 H          63.6731   91.6109   14.7247 H       1  UNL1        0.2985
     14 C          65.6508   91.6859   13.8422 C.2     1  UNL1        0.3224
     15 N          66.8603   91.3417   14.6600 N.2     1  UNL1       -0.0985
     16 H          66.7788   90.7269   15.4246 H       1  UNL1        0.3633
     17 C          65.7750   92.6225   12.6772 C.ar    1  UNL1        0.1114
     18 C          65.3672   92.3302   11.2636 C.ar    1  UNL1        0.0144
     19 C          65.6689   93.5429   10.4339 C.ar    1  UNL1        0.0077
     20 C          66.2631   94.5848   11.3348 C.ar    1  UNL1        0.0357
     21 S          66.3287   94.0159   12.7212 S.2     1  UNL1       -0.0792
     22 C          62.1034   85.3856   11.0638 C.3     1  UNL1        0.1155
     23 C          62.7961   85.1491    9.7544 C.3     1  UNL1        0.0943
     24 C          62.5930   84.9205    7.1744 C.3     1  UNL1        0.0897
     25 N          62.1116   85.5066    8.4685 N.3     1  UNL1       -0.2688
     26 C          60.9456   86.4503    8.4767 C.3     1  UNL1        0.0897
@<TRIPOS>BOND
     1    24    25    1
     2    25    26    1
     3    25    23    1
     4    23    22    1
     5    22     1    1
     6     1     2   am
     7     2     3    2
     8     2     4    1
     9     4     5    1
    10     5     6    1
    11     6     7   ar
    12     7     8   ar
    13     8    12    1
    14    12    14    1
    15    14    15    2
    16    14    17    1
    17    17    18   ar
    18    18    19   ar
    19    19    20   ar
    20    20    21   ar
    21     8     9   ar
    22     9    10   ar
    23    10    11   ar
    24    11     1    1
    25    11     6   ar
    26    21    17   ar
    27    12    13    1
    28    15    16    1
