@<TRIPOS>MOLECULE
*****
 28 32 0 0 0
SMALL
GASTEIGER

@<TRIPOS>ATOM
      1 C          63.6084   86.6338   15.1230 C.3     1  UNL1        0.0718
      2 C          64.0457   87.9746   14.6120 C.3     1  UNL1        0.0181
      3 C          64.9104   89.1937   14.7378 C.3     1  UNL1        0.0036
      4 C          65.6268   90.5047   14.6031 C.3     1  UNL1        0.0245
      5 C          65.0974   91.1989   13.3833 C.3     1  UNL1        0.1069
      6 C          64.0540   90.3169   12.7641 C.3     1  UNL1        0.0245
      7 C          63.9384   89.0776   13.6013 C.3     1  UNL1        0.0036
      8 N          65.5347   92.5397   12.8723 N.ar    1  UNL1       -0.2325
      9 C          65.6784   92.9300   11.4310 C.ar    1  UNL1        0.1130
     10 C          66.1376   94.3571   11.3809 C.ar    1  UNL1        0.1005
     11 N          66.2778   94.8488   12.7911 N.ar    1  UNL1       -0.1332
     12 N          65.9052   93.7256   13.7128 N.ar    1  UNL1       -0.0642
     13 C          66.4090   95.1528   10.1386 C.3     1  UNL1        0.0437
     14 C          66.3330   96.4453    9.3814 C.3     1  UNL1        0.0064
     15 C          66.9552   95.2383    8.7442 C.3     1  UNL1        0.0064
     16 N          63.2631   85.5392   14.1571 N.am    1  UNL1       -0.3025
     17 C          64.2813   84.4923   13.8148 C.2     1  UNL1        0.2458
     18 O          65.6447   84.5399   14.4382 O.2     1  UNL1       -0.2701
     19 H          62.3682   85.5080   13.7479 H       1  UNL1        0.1497
     20 C          63.9360   83.3978   12.8489 C.ar    1  UNL1        0.0534
     21 C          64.3696   83.4973   11.4164 C.ar    1  UNL1        0.0054
     22 C          64.0243   82.4028   10.4506 C.ar    1  UNL1        0.0115
     23 C          63.2455   81.2088   10.9173 C.ar    1  UNL1        0.0577
     24 CL         62.9002   80.1142    9.9514 Cl      1  UNL1       -0.0822
     25 C          62.8119   81.1093   12.3498 C.ar    1  UNL1        0.0115
     26 C          63.1572   82.2038   13.3156 C.ar    1  UNL1        0.0054
     27 C          62.8055   87.3712   17.4812 C.3     1  UNL1        0.0017
     28 C          63.5163   86.3875   16.5998 C.3     1  UNL1        0.0196
@<TRIPOS>BOND
     1    27    28    1
     2    28     1    1
     3     1    16    1
     4    16    17   am
     5    17    18    2
     6    17    20    1
     7    20    21   ar
     8    21    22   ar
     9    22    23   ar
    10    23    24    1
    11    23    25   ar
    12    25    26   ar
    13     2     1    1
    14     2     3    1
    15     3     4    1
    16     4     5    1
    17     5     8    1
    18     8     9   ar
    19     9    10   ar
    20    10    13    1
    21    13    14    1
    22    14    15    1
    23    10    11   ar
    24    11    12   ar
    25     5     6    1
    26     7     6    1
    27    26    20   ar
    28     7     2    1
    29     7     3    1
    30    12     8   ar
    31    15    13    1
    32    16    19    1
@<TRIPOS>MOLECULE
*****
 28 32 0 0 0
SMALL
GASTEIGER

@<TRIPOS>ATOM
      1 C          64.5566   91.1031   14.4546 C.3     1  UNL1        0.0718
      2 C          64.3547   89.6349   14.2229 C.3     1  UNL1        0.0181
      3 C          64.5051   88.2147   14.6814 C.3     1  UNL1        0.0036
      4 C          64.5141   86.7264   14.8686 C.3     1  UNL1        0.0245
      5 C          63.8692   86.1041   13.6656 C.3     1  UNL1        0.1069
      6 C          63.4617   87.2078   12.7351 C.3     1  UNL1        0.0245
      7 C          63.8547   88.5122   13.3629 C.3     1  UNL1        0.0036
      8 N          63.6674   84.6359   13.4338 N.ar    1  UNL1       -0.2325
      9 C          62.5047   83.8191   13.9148 C.ar    1  UNL1        0.1130
     10 C          62.7115   82.4051   13.4586 C.ar    1  UNL1        0.1005
     11 N          64.0019   82.3481   12.6958 N.ar    1  UNL1       -0.1332
     12 N          64.5926   83.7268   12.6805 N.ar    1  UNL1       -0.0642
     13 C          61.7898   81.2509   13.7195 C.3     1  UNL1        0.0437
     14 C          61.5355   79.7729   13.7511 C.3     1  UNL1        0.0064
     15 C          60.4475   80.7296   14.1398 C.3     1  UNL1        0.0064
     16 N          64.8771   92.0073   13.3014 N.am    1  UNL1       -0.3025
     17 C          66.3043   92.2297   12.8971 C.2     1  UNL1        0.2458
     18 O          67.4110   91.5481   13.6458 O.2     1  UNL1       -0.2701
     19 H          64.1508   92.4547   12.8100 H       1  UNL1        0.1497
     20 C          66.6249   93.1339   11.7439 C.ar    1  UNL1        0.0534
     21 C          66.2321   94.5807   11.7935 C.ar    1  UNL1        0.0054
     22 C          66.5527   95.4848   10.6404 C.ar    1  UNL1        0.0115
     23 C          67.2661   94.9421    9.4376 C.ar    1  UNL1        0.0577
     24 CL         67.5867   95.8463    8.2844 Cl      1  UNL1       -0.0822
     25 C          67.6589   93.4954    9.3880 C.ar    1  UNL1        0.0115
     26 C          67.3383   92.5913   10.5411 C.ar    1  UNL1        0.0054
     27 C          65.5824   92.4283   16.4398 C.3     1  UNL1        0.0017
     28 C          64.4379   91.6671   15.8394 C.3     1  UNL1        0.0196
@<TRIPOS>BOND
     1    27    28    1
     2    28     1    1
     3     1    16    1
     4    16    17   am
     5    17    18    2
     6    17    20    1
     7    20    21   ar
     8    21    22   ar
     9    22    23   ar
    10    23    24    1
    11    23    25   ar
    12    25    26   ar
    13     2     1    1
    14     2     3    1
    15     3     4    1
    16     4     5    1
    17     5     8    1
    18     8     9   ar
    19     9    10   ar
    20    10    13    1
    21    13    14    1
    22    14    15    1
    23    10    11   ar
    24    11    12   ar
    25     5     6    1
    26     7     6    1
    27    26    20   ar
    28     7     2    1
    29     7     3    1
    30    12     8   ar
    31    15    13    1
    32    16    19    1
@<TRIPOS>MOLECULE
*****
 28 32 0 0 0
SMALL
GASTEIGER

@<TRIPOS>ATOM
      1 C          61.4049   87.1191   11.0108 C.3     1  UNL1        0.0718
      2 C          62.3029   88.2189   11.4945 C.3     1  UNL1        0.0181
      3 C          62.9203   89.5720   11.3000 C.3     1  UNL1        0.0036
      4 C          63.6753   90.8657   11.3810 C.3     1  UNL1        0.0245
      5 C          64.4626   90.8637   12.6578 C.3     1  UNL1        0.1069
      6 C          64.1942   89.5689   13.3659 C.3     1  UNL1        0.0245
      7 C          63.2410   88.7706   12.5267 C.3     1  UNL1        0.0036
      8 N          65.3607   91.9635   13.1415 N.ar    1  UNL1       -0.2325
      9 C          66.3984   91.8451   14.2183 C.ar    1  UNL1        0.1130
     10 C          67.0577   93.1832   14.3756 C.ar    1  UNL1        0.1005
     11 N          66.4276   94.1286   13.3962 N.ar    1  UNL1       -0.1332
     12 N          65.3788   93.3747   12.6335 N.ar    1  UNL1       -0.0642
     13 C          68.1546   93.5173   15.3427 C.3     1  UNL1        0.0437
     14 C          69.2062   93.0763   16.3172 C.3     1  UNL1        0.0064
     15 C          69.0030   94.5370   16.0431 C.3     1  UNL1        0.0064
     16 N          61.4691   85.7631   11.6489 N.am    1  UNL1       -0.3025
     17 C          62.4730   84.7562   11.1712 C.2     1  UNL1        0.2458
     18 O          63.4128   85.1052   10.0554 O.2     1  UNL1       -0.2701
     19 H          60.8523   85.5340   12.3812 H       1  UNL1        0.1497
     20 C          62.5372   83.4001   11.8094 C.ar    1  UNL1        0.0534
     21 C          62.3081   83.2539   13.2845 C.ar    1  UNL1        0.0054
     22 C          62.3723   81.8979   13.9226 C.ar    1  UNL1        0.0115
     23 C          62.6655   80.6882   13.0855 C.ar    1  UNL1        0.0577
     24 CL         62.7297   79.3322   13.7237 Cl      1  UNL1       -0.0822
     25 C          62.8946   80.8345   11.6104 C.ar    1  UNL1        0.0115
     26 C          62.8304   82.1905   10.9723 C.ar    1  UNL1        0.0054
     27 C          60.4304   86.4731    8.6907 C.3     1  UNL1        0.0017
     28 C          60.4427   87.3753    9.8890 C.3     1  UNL1        0.0196
@<TRIPOS>BOND
     1    27    28    1
     2    28     1    1
     3     1    16    1
     4    16    17   am
     5    17    18    2
     6    17    20    1
     7    20    21   ar
     8    21    22   ar
     9    22    23   ar
    10    23    24    1
    11    23    25   ar
    12    25    26   ar
    13     2     1    1
    14     2     3    1
    15     3     4    1
    16     4     5    1
    17     5     8    1
    18     8     9   ar
    19     9    10   ar
    20    10    13    1
    21    13    14    1
    22    14    15    1
    23    10    11   ar
    24    11    12   ar
    25     5     6    1
    26     7     6    1
    27    26    20   ar
    28     7     2    1
    29     7     3    1
    30    12     8   ar
    31    15    13    1
    32    16    19    1
@<TRIPOS>MOLECULE
*****
 28 32 0 0 0
SMALL
GASTEIGER

@<TRIPOS>ATOM
      1 C          62.7618   89.8391   11.8314 C.3     1  UNL1        0.0718
      2 C          62.7593   88.3407   11.9018 C.3     1  UNL1        0.0181
      3 C          62.3661   87.0138   11.3234 C.3     1  UNL1        0.0036
      4 C          62.1220   85.5706   10.9952 C.3     1  UNL1        0.0245
      5 C          62.7533   84.7374   12.0711 C.3     1  UNL1        0.1069
      6 C          63.3874   85.6657   13.0642 C.3     1  UNL1        0.0245
      7 C          63.1481   87.0725   12.6021 C.3     1  UNL1        0.0036
      8 N          62.7508   83.2390   12.1415 N.ar    1  UNL1       -0.2325
      9 C          62.8179   82.3013   10.9726 C.ar    1  UNL1        0.1130
     10 C          62.7893   80.8981   11.5019 C.ar    1  UNL1        0.1005
     11 N          62.7045   80.9685   12.9978 N.ar    1  UNL1       -0.1332
     12 N          62.6807   82.4153   13.3931 N.ar    1  UNL1       -0.0642
     13 C          62.8371   79.6445   10.6795 C.3     1  UNL1        0.0437
     14 C          63.0487   78.9640    9.3596 C.3     1  UNL1        0.0064
     15 C          62.7083   78.1537   10.5751 C.3     1  UNL1        0.0064
     16 N          63.9415   90.6119   12.3424 N.am    1  UNL1       -0.3025
     17 C          64.1184   90.8224   13.8169 C.2     1  UNL1        0.2458
     18 O          63.1158   90.2601   14.7805 O.2     1  UNL1       -0.2701
     19 H          64.5996   90.9810   11.7100 H       1  UNL1        0.1497
     20 C          65.2981   91.5953   14.3280 C.ar    1  UNL1        0.0534
     21 C          66.4161   91.9601   13.3969 C.ar    1  UNL1        0.0054
     22 C          67.5957   92.7329   13.9080 C.ar    1  UNL1        0.0115
     23 C          67.6573   93.1410   15.3501 C.ar    1  UNL1        0.0577
     24 CL         68.8370   93.9139   15.8612 Cl      1  UNL1       -0.0822
     25 C          66.5393   92.7762   16.2812 C.ar    1  UNL1        0.0115
     26 C          65.3597   92.0034   15.7701 C.ar    1  UNL1        0.0054
     27 C          60.1942   90.0629   11.5043 C.3     1  UNL1        0.0017
     28 C          61.5847   90.5645   11.2499 C.3     1  UNL1        0.0196
@<TRIPOS>BOND
     1    27    28    1
     2    28     1    1
     3     1    16    1
     4    16    17   am
     5    17    18    2
     6    17    20    1
     7    20    21   ar
     8    21    22   ar
     9    22    23   ar
    10    23    24    1
    11    23    25   ar
    12    25    26   ar
    13     2     1    1
    14     2     3    1
    15     3     4    1
    16     4     5    1
    17     5     8    1
    18     8     9   ar
    19     9    10   ar
    20    10    13    1
    21    13    14    1
    22    14    15    1
    23    10    11   ar
    24    11    12   ar
    25     5     6    1
    26     7     6    1
    27    26    20   ar
    28     7     2    1
    29     7     3    1
    30    12     8   ar
    31    15    13    1
    32    16    19    1
@<TRIPOS>MOLECULE
*****
 28 32 0 0 0
SMALL
GASTEIGER

@<TRIPOS>ATOM
      1 C          64.3286   89.7984   14.2636 C.3     1  UNL1        0.0718
      2 C          64.1567   88.3243   14.0459 C.3     1  UNL1        0.0181
      3 C          64.3952   86.9099   14.4845 C.3     1  UNL1        0.0036
      4 C          64.4712   85.4227   14.6652 C.3     1  UNL1        0.0245
      5 C          63.7433   84.7792   13.5222 C.3     1  UNL1        0.1069
      6 C          63.2175   85.8687   12.6354 C.3     1  UNL1        0.0245
      7 C          63.6204   87.1855   13.2301 C.3     1  UNL1        0.0036
      8 N          63.5714   83.3051   13.3045 N.ar    1  UNL1       -0.2325
      9 C          63.3258   82.6311   11.9870 C.ar    1  UNL1        0.1130
     10 C          63.2175   81.1556   12.2343 C.ar    1  UNL1        0.1005
     11 N          63.3963   80.9176   13.7045 N.ar    1  UNL1       -0.1332
     12 N          63.6150   82.2461   14.3659 N.ar    1  UNL1       -0.0642
     13 C          62.9734   80.1029   11.1940 C.3     1  UNL1        0.0437
     14 C          62.7290   78.6685   10.8298 C.3     1  UNL1        0.0064
     15 C          62.7950   79.7141    9.7563 C.3     1  UNL1        0.0064
     16 N          64.7223   90.6847   13.1192 N.am    1  UNL1       -0.3025
     17 C          66.0175   91.4398   13.1666 C.2     1  UNL1        0.2458
     18 O          66.9190   91.3087   14.3583 O.2     1  UNL1       -0.2701
     19 H          64.1307   90.7708   12.3371 H       1  UNL1        0.1497
     20 C          66.4113   92.3261   12.0222 C.ar    1  UNL1        0.0534
     21 C          65.6587   93.5979   11.7651 C.ar    1  UNL1        0.0054
     22 C          66.0525   94.4841   10.6208 C.ar    1  UNL1        0.0115
     23 C          67.1988   94.0985    9.7335 C.ar    1  UNL1        0.0577
     24 CL         67.5926   94.9848    8.5891 Cl      1  UNL1       -0.0822
     25 C          67.9513   92.8266    9.9906 C.ar    1  UNL1        0.0115
     26 C          67.5576   91.9404   11.1349 C.ar    1  UNL1        0.0054
     27 C          63.1673   89.7195   16.5863 C.3     1  UNL1        0.0017
     28 C          64.1067   90.3863   15.6256 C.3     1  UNL1        0.0196
@<TRIPOS>BOND
     1    27    28    1
     2    28     1    1
     3     1    16    1
     4    16    17   am
     5    17    18    2
     6    17    20    1
     7    20    21   ar
     8    21    22   ar
     9    22    23   ar
    10    23    24    1
    11    23    25   ar
    12    25    26   ar
    13     2     1    1
    14     2     3    1
    15     3     4    1
    16     4     5    1
    17     5     8    1
    18     8     9   ar
    19     9    10   ar
    20    10    13    1
    21    13    14    1
    22    14    15    1
    23    10    11   ar
    24    11    12   ar
    25     5     6    1
    26     7     6    1
    27    26    20   ar
    28     7     2    1
    29     7     3    1
    30    12     8   ar
    31    15    13    1
    32    16    19    1
@<TRIPOS>MOLECULE
*****
 28 32 0 0 0
SMALL
GASTEIGER

@<TRIPOS>ATOM
      1 C          60.0987   88.8945   11.2165 C.3     1  UNL1        0.0718
      2 C          61.2973   89.6820   11.6560 C.3     1  UNL1        0.0181
      3 C          62.4074   90.6412   11.3434 C.3     1  UNL1        0.0036
      4 C          63.5919   91.5616   11.3329 C.3     1  UNL1        0.0245
      5 C          64.1798   91.5760   12.7128 C.3     1  UNL1        0.1069
      6 C          63.3588   90.6646   13.5761 C.3     1  UNL1        0.0245
      7 C          62.2633   90.0869   12.7297 C.3     1  UNL1        0.0036
      8 N          65.3784   92.3635   13.1523 N.ar    1  UNL1       -0.2325
      9 C          66.2451   92.0617   14.3389 C.ar    1  UNL1        0.1130
     10 C          67.3231   93.1028   14.4022 C.ar    1  UNL1        0.1005
     11 N          67.1227   94.0480   13.2549 N.ar    1  UNL1       -0.1332
     12 N          65.9209   93.5911   12.4824 N.ar    1  UNL1       -0.0642
     13 C          68.4106   93.1843   15.4322 C.3     1  UNL1        0.0437
     14 C          69.2284   92.5394   16.5116 C.3     1  UNL1        0.0064
     15 C          69.4763   93.9704   16.1366 C.3     1  UNL1        0.0064
     16 N          60.1811   88.0187   10.0015 N.am    1  UNL1       -0.3025
     17 C          61.3311   87.0697    9.8376 C.2     1  UNL1        0.2458
     18 O          62.3987   86.9965   10.8886 O.2     1  UNL1       -0.2701
     19 H          59.4804   88.0667    9.3116 H       1  UNL1        0.1497
     20 C          61.4134   86.1938    8.6225 C.ar    1  UNL1        0.0534
     21 C          60.1980   85.9765    7.7709 C.ar    1  UNL1        0.0054
     22 C          60.2804   85.1007    6.5560 C.ar    1  UNL1        0.0115
     23 C          61.5783   84.4422    6.1927 C.ar    1  UNL1        0.0577
     24 CL         61.6606   83.5664    4.9776 Cl      1  UNL1       -0.0822
     25 C          62.7937   84.6596    7.0443 C.ar    1  UNL1        0.0115
     26 C          62.7113   85.5354    8.2592 C.ar    1  UNL1        0.0054
     27 C          58.8371   88.8684   13.4874 C.3     1  UNL1        0.0017
     28 C          58.8178   88.9828   11.9920 C.3     1  UNL1        0.0196
@<TRIPOS>BOND
     1    27    28    1
     2    28     1    1
     3     1    16    1
     4    16    17   am
     5    17    18    2
     6    17    20    1
     7    20    21   ar
     8    21    22   ar
     9    22    23   ar
    10    23    24    1
    11    23    25   ar
    12    25    26   ar
    13     2     1    1
    14     2     3    1
    15     3     4    1
    16     4     5    1
    17     5     8    1
    18     8     9   ar
    19     9    10   ar
    20    10    13    1
    21    13    14    1
    22    14    15    1
    23    10    11   ar
    24    11    12   ar
    25     5     6    1
    26     7     6    1
    27    26    20   ar
    28     7     2    1
    29     7     3    1
    30    12     8   ar
    31    15    13    1
    32    16    19    1
