@<TRIPOS>MOLECULE
*****
 27 30 0 0 0
SMALL
GASTEIGER

@<TRIPOS>ATOM
      1 N1         62.9431   90.6070   11.0270 N.ar    1  <1>        -0.2067
      2 N2         63.7198   91.5381   10.1439 N.ar    1  <1>        -0.1634
      3 C1         64.8015   92.1670   10.9711 C.ar    1  <1>         0.1027
      4 C2         64.6934   91.6247   12.3655 C.ar    1  <1>         0.0371
      5 C3         65.4924   91.8842   13.6081 C.ar    1  <1>         0.0030
      6 C4         65.1428   91.1796   14.8853 C.ar    1  <1>         0.0040
      7 C5         63.9942   90.2154   14.9198 C.ar    1  <1>         0.0729
      8 C6         63.1952   89.9559   13.6772 C.ar    1  <1>         0.0231
      9 C7         63.5448   90.6605   12.4000 C.ar    1  <1>         0.0863
     10 C8         65.8137   93.1634   10.4887 C.ar    1  <1>         0.0194
     11 C9         67.0872   92.6907    9.8524 C.ar    1  <1>         0.0016
     12 C10        68.0994   93.6871    9.3700 C.ar    1  <1>         0.0000
     13 C11        67.8381   95.1561    9.5239 C.ar    1  <1>         0.0000
     14 C12        66.5647   95.6288   10.1602 C.ar    1  <1>         0.0000
     15 C13        65.5525   94.6324   10.6426 C.ar    1  <1>         0.0016
     16 C14        60.4050   88.1037    9.4916 C.ar    1  <1>         0.1039
     17 C15        59.5274   88.8574   10.4466 C.ar    1  <1>         0.0587
     18 S1         60.3714   89.8868   11.1379 S.2     1  <1>        -0.0466
     19 C16        61.7706   89.7694   10.6103 C.ar    1  <1>         0.1954
     20 N3         61.7914   88.6675    9.5929 N.ar    1  <1>        -0.2192
     21 O1         58.5449   86.8931    8.1409 O.co2   1  <1>        -0.5430
     22 C17        59.9723   86.9832    8.5933 C.2     1  <1>         0.0911
     23 O2         60.9668   85.9527    8.1473 O.co2   1  <1>        -0.5430
     24 C18        63.6447   89.5108   16.1971 C.3     1  <1>         0.4186
     25 F1         63.2951   88.8062   17.4743 F       1  <1>        -0.1659
     26 F2         63.8948   88.1879   15.5358 F       1  <1>        -0.1659
     27 F3         63.3945   90.8336   16.8584 F       1  <1>        -0.1659
@<TRIPOS>UNITY_ATOM_ATTR
21 1
charge -1
@<TRIPOS>BOND
     1    21    22   ar
     2    22    23   ar
     3    22    16    1
     4    16    17   ar
     5    17    18   ar
     6    18    19   ar
     7    19     1    1
     8     1     2   ar
     9     2     3   ar
    10     3    10    1
    11    10    11   ar
    12    11    12   ar
    13    12    13   ar
    14    13    14   ar
    15    14    15   ar
    16     3     4   ar
    17     4     5   ar
    18     5     6   ar
    19     6     7   ar
    20     7    24    1
    21    24    25    1
    22    24    26    1
    23    24    27    1
    24     7     8   ar
    25     8     9   ar
    26    19    20   ar
    27    20    16   ar
    28     9     1   ar
    29    15    10   ar
    30     9     4   ar
@<TRIPOS>MOLECULE
*****
 27 30 0 0 0
SMALL
GASTEIGER

@<TRIPOS>ATOM
      1 N1         62.9096   87.7170   12.2074 N.ar    1  <1>        -0.2067
      2 N2         63.2925   86.3694   12.7432 N.ar    1  <1>        -0.1634
      3 C1         62.6669   85.3266   11.8651 C.ar    1  <1>         0.1027
      4 C2         61.8973   86.0298   10.7865 C.ar    1  <1>         0.0371
      5 C3         61.0793   85.5157    9.6391 C.ar    1  <1>         0.0030
      6 C4         60.4114   86.4790    8.7033 C.ar    1  <1>         0.0040
      7 C5         60.5614   87.9564    8.9149 C.ar    1  <1>         0.0729
      8 C6         61.3794   88.4705   10.0623 C.ar    1  <1>         0.0231
      9 C7         62.0473   87.5072   10.9981 C.ar    1  <1>         0.0863
     10 C8         62.7893   83.8413   12.0355 C.ar    1  <1>         0.0194
     11 C9         63.2518   82.9905   10.8900 C.ar    1  <1>         0.0016
     12 C10        63.3742   81.5053   11.0604 C.ar    1  <1>         0.0000
     13 C11        63.0341   80.8708   12.3764 C.ar    1  <1>         0.0000
     14 C12        62.5716   81.7216   13.5219 C.ar    1  <1>         0.0000
     15 C13        62.4492   83.2068   13.3514 C.ar    1  <1>         0.0016
     16 C14        63.9506   90.7819   14.3496 C.ar    1  <1>         0.1039
     17 C15        63.9393   91.3800   12.9740 C.ar    1  <1>         0.0587
     18 S1         63.5480   90.3047   12.0041 S.2     1  <1>        -0.0466
     19 C16        63.3174   89.0420   12.7803 C.ar    1  <1>         0.1954
     20 N3         63.5663   89.3369   14.2297 N.ar    1  <1>        -0.2192
     21 O1         63.4723   91.2617   16.8578 O.co2   1  <1>        -0.5430
     22 C17        64.2871   91.5022   15.6215 C.2     1  <1>         0.0911
     23 O2         65.4385   92.4630   15.6572 O.co2   1  <1>        -0.5430
     24 C18        59.8934   88.9197    7.9789 C.3     1  <1>         0.4186
     25 F1         59.2255   89.8830    7.0431 F       1  <1>        -0.1659
     26 F2         59.6082   87.7966    7.0265 F       1  <1>        -0.1659
     27 F3         60.1787   90.0428    8.9314 F       1  <1>        -0.1659
@<TRIPOS>UNITY_ATOM_ATTR
21 1
charge -1
@<TRIPOS>BOND
     1    21    22   ar
     2    22    23   ar
     3    22    16    1
     4    16    17   ar
     5    17    18   ar
     6    18    19   ar
     7    19     1    1
     8     1     2   ar
     9     2     3   ar
    10     3    10    1
    11    10    11   ar
    12    11    12   ar
    13    12    13   ar
    14    13    14   ar
    15    14    15   ar
    16     3     4   ar
    17     4     5   ar
    18     5     6   ar
    19     6     7   ar
    20     7    24    1
    21    24    25    1
    22    24    26    1
    23    24    27    1
    24     7     8   ar
    25     8     9   ar
    26    19    20   ar
    27    20    16   ar
    28     9     1   ar
    29    15    10   ar
    30     9     4   ar
@<TRIPOS>MOLECULE
*****
 27 30 0 0 0
SMALL
GASTEIGER

@<TRIPOS>ATOM
      1 N1         63.0531   87.8385   12.3758 N.ar    1  <1>        -0.2067
      2 N2         63.4207   86.5069   12.9604 N.ar    1  <1>        -0.1634
      3 C1         62.7656   85.4408   12.1332 C.ar    1  <1>         0.1027
      4 C2         61.9932   86.1135   11.0373 C.ar    1  <1>         0.0371
      5 C3         61.1511   85.5681    9.9223 C.ar    1  <1>         0.0030
      6 C4         60.4867   86.5047    8.9572 C.ar    1  <1>         0.0040
      7 C5         60.6644   87.9865    9.1071 C.ar    1  <1>         0.0729
      8 C6         61.5065   88.5319   10.2221 C.ar    1  <1>         0.0231
      9 C7         62.1710   87.5954   11.1872 C.ar    1  <1>         0.0863
     10 C8         62.8654   83.9617   12.3617 C.ar    1  <1>         0.0194
     11 C9         62.6187   83.3956   13.7288 C.ar    1  <1>         0.0016
     12 C10        62.7184   81.9165   13.9573 C.ar    1  <1>         0.0000
     13 C11        63.0649   81.0034   12.8188 C.ar    1  <1>         0.0000
     14 C12        63.3115   81.5694   11.4518 C.ar    1  <1>         0.0000
     15 C13        63.2118   83.0486   11.2233 C.ar    1  <1>         0.0016
     16 C14        64.2441   90.9500   14.3673 C.ar    1  <1>         0.1039
     17 C15        64.0852   91.5290   12.9926 C.ar    1  <1>         0.0587
     18 S1         63.6198   90.4339   12.0793 S.2     1  <1>        -0.0466
     19 C16        63.4910   89.1781   12.8895 C.ar    1  <1>         0.1954
     20 N3         63.8768   89.4970   14.3034 N.ar    1  <1>        -0.2192
     21 O1         66.1091   92.1719   15.7011 O.co2   1  <1>        -0.5430
     22 C17        64.6917   91.6933   15.5907 C.2     1  <1>         0.0911
     23 O2         63.7219   91.9582   16.7040 O.co2   1  <1>        -0.5430
     24 C18        59.9999   88.9230    8.1420 C.3     1  <1>         0.4186
     25 F1         59.3355   89.8595    7.1768 F       1  <1>        -0.1659
     26 F2         60.1852   90.0531    9.1108 F       1  <1>        -0.1659
     27 F3         59.8146   87.7930    7.1731 F       1  <1>        -0.1659
@<TRIPOS>UNITY_ATOM_ATTR
21 1
charge -1
@<TRIPOS>BOND
     1    21    22   ar
     2    22    23   ar
     3    22    16    1
     4    16    17   ar
     5    17    18   ar
     6    18    19   ar
     7    19     1    1
     8     1     2   ar
     9     2     3   ar
    10     3    10    1
    11    10    11   ar
    12    11    12   ar
    13    12    13   ar
    14    13    14   ar
    15    14    15   ar
    16     3     4   ar
    17     4     5   ar
    18     5     6   ar
    19     6     7   ar
    20     7    24    1
    21    24    25    1
    22    24    26    1
    23    24    27    1
    24     7     8   ar
    25     8     9   ar
    26    19    20   ar
    27    20    16   ar
    28     9     1   ar
    29    15    10   ar
    30     9     4   ar
@<TRIPOS>MOLECULE
*****
 27 30 0 0 0
SMALL
GASTEIGER

@<TRIPOS>ATOM
      1 N1         62.9724   86.3233   12.4153 N.ar    1  <1>        -0.2067
      2 N2         63.7207   87.1589   13.4113 N.ar    1  <1>        -0.1634
      3 C1         63.5146   88.6011   13.0542 C.ar    1  <1>         0.1027
      4 C2         62.6388   88.6569   11.8377 C.ar    1  <1>         0.0371
      5 C3         62.1033   89.8077   11.0385 C.ar    1  <1>         0.0030
      6 C4         61.2326   89.5507    9.8444 C.ar    1  <1>         0.0040
      7 C5         60.8975   88.1430    9.4496 C.ar    1  <1>         0.0729
      8 C6         61.4330   86.9922   10.2488 C.ar    1  <1>         0.0231
      9 C7         62.3037   87.2491   11.4428 C.ar    1  <1>         0.0863
     10 C8         64.0842   89.7805   13.7854 C.ar    1  <1>         0.0194
     11 C9         64.9990   90.7333   13.0744 C.ar    1  <1>         0.0016
     12 C10        65.5686   91.9128   13.8055 C.ar    1  <1>         0.0000
     13 C11        65.2235   92.1394   15.2476 C.ar    1  <1>         0.0000
     14 C12        64.3087   91.1866   15.9585 C.ar    1  <1>         0.0000
     15 C13        63.7391   90.0072   15.2273 C.ar    1  <1>         0.0016
     16 C14        62.5534   82.5210   13.0730 C.ar    1  <1>         0.1039
     17 C15        63.0469   82.5176   11.6565 C.ar    1  <1>         0.0587
     18 S1         63.2640   83.9415   11.2377 S.2     1  <1>        -0.0466
     19 C16        62.9045   84.8250   12.3954 C.ar    1  <1>         0.1954
     20 N3         62.4654   83.9471   13.5296 N.ar    1  <1>        -0.2192
     21 O1         63.2928   80.3812   14.3475 O.co2   1  <1>        -0.5430
     22 C17        62.2085   81.3109   13.8894 C.2     1  <1>         0.0911
     23 O2         60.7792   81.0305   14.2478 O.co2   1  <1>        -0.5430
     24 C18        60.0267   87.8861    8.2554 C.3     1  <1>         0.4186
     25 F1         59.1561   87.6291    7.0614 F       1  <1>        -0.1659
     26 F2         60.1296   89.3318    7.8693 F       1  <1>        -0.1659
     27 F3         59.9238   86.4403    8.6416 F       1  <1>        -0.1659
@<TRIPOS>UNITY_ATOM_ATTR
21 1
charge -1
@<TRIPOS>BOND
     1    21    22   ar
     2    22    23   ar
     3    22    16    1
     4    16    17   ar
     5    17    18   ar
     6    18    19   ar
     7    19     1    1
     8     1     2   ar
     9     2     3   ar
    10     3    10    1
    11    10    11   ar
    12    11    12   ar
    13    12    13   ar
    14    13    14   ar
    15    14    15   ar
    16     3     4   ar
    17     4     5   ar
    18     5     6   ar
    19     6     7   ar
    20     7    24    1
    21    24    25    1
    22    24    26    1
    23    24    27    1
    24     7     8   ar
    25     8     9   ar
    26    19    20   ar
    27    20    16   ar
    28     9     1   ar
    29    15    10   ar
    30     9     4   ar
@<TRIPOS>MOLECULE
*****
 27 30 0 0 0
SMALL
GASTEIGER

@<TRIPOS>ATOM
      1 N1         63.6094   86.8221   13.3849 N.ar    1  <1>        -0.2067
      2 N2         64.3239   87.6771   14.3891 N.ar    1  <1>        -0.1634
      3 C1         64.1719   89.1094   13.9701 C.ar    1  <1>         0.1027
      4 C2         63.3634   89.1395   12.7069 C.ar    1  <1>         0.0371
      5 C3         62.8989   90.2715   11.8393 C.ar    1  <1>         0.0030
      6 C4         62.0868   89.9899   10.6101 C.ar    1  <1>         0.0040
      7 C5         61.7392   88.5763   10.2484 C.ar    1  <1>         0.0729
      8 C6         62.2037   87.4442   11.1160 C.ar    1  <1>         0.0231
      9 C7         63.0158   87.7259   12.3452 C.ar    1  <1>         0.0863
     10 C8         64.7303   90.3021   14.6881 C.ar    1  <1>         0.0194
     11 C9         63.9832   90.8994   15.8437 C.ar    1  <1>         0.0016
     12 C10        64.5416   92.0922   16.5617 C.ar    1  <1>         0.0000
     13 C11        65.8469   92.6876   16.1243 C.ar    1  <1>         0.0000
     14 C12        66.5939   92.0904   14.9688 C.ar    1  <1>         0.0000
     15 C13        66.0356   90.8976   14.2507 C.ar    1  <1>         0.0016
     16 C14        63.3265   83.0099   12.7118 C.ar    1  <1>         0.1039
     17 C15        63.3701   83.0372   14.2110 C.ar    1  <1>         0.0587
     18 S1         63.4814   84.4685   14.6456 S.2     1  <1>        -0.0466
     19 C16        63.5066   85.3259   13.4150 C.ar    1  <1>         0.1954
     20 N3         63.4108   84.4245   12.2200 N.ar    1  <1>        -0.2192
     21 O1         62.6876   80.5066   12.4371 O.co2   1  <1>        -0.5430
     22 C17        63.2176   81.7836   11.8551 C.2     1  <1>         0.0911
     23 O2         63.6387   81.8340   10.4163 O.co2   1  <1>        -0.5430
     24 C18        60.9270   88.2947    9.0191 C.3     1  <1>         0.4186
     25 F1         60.1149   88.0130    7.7898 F       1  <1>        -0.1659
     26 F2         60.1869   89.5849    9.2124 F       1  <1>        -0.1659
     27 F3         61.6671   87.0044    8.8258 F       1  <1>        -0.1659
@<TRIPOS>UNITY_ATOM_ATTR
21 1
charge -1
@<TRIPOS>BOND
     1    21    22   ar
     2    22    23   ar
     3    22    16    1
     4    16    17   ar
     5    17    18   ar
     6    18    19   ar
     7    19     1    1
     8     1     2   ar
     9     2     3   ar
    10     3    10    1
    11    10    11   ar
    12    11    12   ar
    13    12    13   ar
    14    13    14   ar
    15    14    15   ar
    16     3     4   ar
    17     4     5   ar
    18     5     6   ar
    19     6     7   ar
    20     7    24    1
    21    24    25    1
    22    24    26    1
    23    24    27    1
    24     7     8   ar
    25     8     9   ar
    26    19    20   ar
    27    20    16   ar
    28     9     1   ar
    29    15    10   ar
    30     9     4   ar
@<TRIPOS>MOLECULE
*****
 27 30 0 0 0
SMALL
GASTEIGER

@<TRIPOS>ATOM
      1 N1         62.5619   88.6225   11.7393 N.ar    1  <1>        -0.2067
      2 N2         63.0585   89.9202   12.3045 N.ar    1  <1>        -0.1634
      3 C1         63.9055   89.6099   13.5029 C.ar    1  <1>         0.1027
      4 C2         63.9323   88.1204   13.6785 C.ar    1  <1>         0.0371
      5 C3         64.6056   87.2410   14.6901 C.ar    1  <1>         0.0030
      6 C4         64.4484   85.7514   14.6116 C.ar    1  <1>         0.0040
      7 C5         63.6181   85.1411   13.5216 C.ar    1  <1>         0.0729
      8 C6         62.9448   86.0206   12.5101 C.ar    1  <1>         0.0231
      9 C7         63.1019   87.5102   12.5885 C.ar    1  <1>         0.0863
     10 C8         64.6031   90.6129   14.3731 C.ar    1  <1>         0.0194
     11 C9         64.0191   90.9868   15.7033 C.ar    1  <1>         0.0016
     12 C10        64.7168   91.9898   16.5735 C.ar    1  <1>         0.0000
     13 C11        65.9984   92.6190   16.1136 C.ar    1  <1>         0.0000
     14 C12        66.5824   92.2451   14.7835 C.ar    1  <1>         0.0000
     15 C13        65.8847   91.2421   13.9133 C.ar    1  <1>         0.0016
     16 C14        60.3724   87.4763    8.7463 C.ar    1  <1>         0.1039
     17 C15        60.2738   88.9681    8.6232 C.ar    1  <1>         0.0587
     18 S1         61.0820   89.5790    9.7293 S.2     1  <1>        -0.0466
     19 C16        61.6801   88.4648   10.5362 C.ar    1  <1>         0.1954
     20 N3         61.2415   87.1654    9.9287 N.ar    1  <1>        -0.2192
     21 O1         60.5450   85.4247    7.1618 O.co2   1  <1>        -0.5430
     22 C17        59.7170   86.4720    7.8455 C.2     1  <1>         0.0911
     23 O2         58.2334   86.5150    7.6282 O.co2   1  <1>        -0.5430
     24 C18        63.4610   83.6514   13.4432 C.3     1  <1>         0.4186
     25 F1         63.3039   82.1617   13.3648 F       1  <1>        -0.1659
     26 F2         62.3251   83.7197   14.4204 F       1  <1>        -0.1659
     27 F3         64.5969   83.5831   12.4660 F       1  <1>        -0.1659
@<TRIPOS>UNITY_ATOM_ATTR
21 1
charge -1
@<TRIPOS>BOND
     1    21    22   ar
     2    22    23   ar
     3    22    16    1
     4    16    17   ar
     5    17    18   ar
     6    18    19   ar
     7    19     1    1
     8     1     2   ar
     9     2     3   ar
    10     3    10    1
    11    10    11   ar
    12    11    12   ar
    13    12    13   ar
    14    13    14   ar
    15    14    15   ar
    16     3     4   ar
    17     4     5   ar
    18     5     6   ar
    19     6     7   ar
    20     7    24    1
    21    24    25    1
    22    24    26    1
    23    24    27    1
    24     7     8   ar
    25     8     9   ar
    26    19    20   ar
    27    20    16   ar
    28     9     1   ar
    29    15    10   ar
    30     9     4   ar
@<TRIPOS>MOLECULE
*****
 27 30 0 0 0
SMALL
GASTEIGER

@<TRIPOS>ATOM
      1 N1         63.2998   89.0034   12.4691 N.ar    1  <1>        -0.2067
      2 N2         62.4627   89.3316   11.2685 N.ar    1  <1>        -0.1634
      3 C1         61.8918   88.0503   10.7373 C.ar    1  <1>         0.1027
      4 C2         62.3760   86.9302   11.6096 C.ar    1  <1>         0.0371
      5 C3         62.1369   85.4500   11.5676 C.ar    1  <1>         0.0030
      6 C4         62.7681   84.5588   12.5959 C.ar    1  <1>         0.0040
      7 C5         63.6384   85.1479   13.6662 C.ar    1  <1>         0.0729
      8 C6         63.8774   86.6281   13.7083 C.ar    1  <1>         0.0231
      9 C7         63.2463   87.5192   12.6799 C.ar    1  <1>         0.0863
     10 C8         60.9941   87.9131    9.5434 C.ar    1  <1>         0.0194
     11 C9         60.4344   89.1372    8.8812 C.ar    1  <1>         0.0016
     12 C10        59.5368   89.0000    7.6873 C.ar    1  <1>         0.0000
     13 C11        59.1989   87.6387    7.1555 C.ar    1  <1>         0.0000
     14 C12        59.7585   86.4147    7.8176 C.ar    1  <1>         0.0000
     15 C13        60.6562   86.5519    9.0116 C.ar    1  <1>         0.0016
     16 C14        65.5864   91.7425   13.9970 C.ar    1  <1>         0.1039
     17 C15        64.8606   91.2572   15.2168 C.ar    1  <1>         0.0587
     18 S1         63.9157   90.1721   14.7929 S.2     1  <1>        -0.0466
     19 C16        64.0575   89.9867   13.3111 C.ar    1  <1>         0.1954
     20 N3         65.0900   90.9572   12.8193 N.ar    1  <1>        -0.2192
     21 O1         66.2155   94.2624   14.0633 O.co2   1  <1>        -0.5430
     22 C17        66.6259   92.8232   13.9613 C.2     1  <1>         0.0911
     23 O2         68.0759   92.4648   13.8236 O.co2   1  <1>        -0.5430
     24 C18        64.2696   84.2567   14.6945 C.3     1  <1>         0.4186
     25 F1         64.9008   83.3656   15.7228 F       1  <1>        -0.1659
     26 F2         62.9090   83.8282   15.1584 F       1  <1>        -0.1659
     27 F3         65.6302   84.6852   14.2307 F       1  <1>        -0.1659
@<TRIPOS>UNITY_ATOM_ATTR
21 1
charge -1
@<TRIPOS>BOND
     1    21    22   ar
     2    22    23   ar
     3    22    16    1
     4    16    17   ar
     5    17    18   ar
     6    18    19   ar
     7    19     1    1
     8     1     2   ar
     9     2     3   ar
    10     3    10    1
    11    10    11   ar
    12    11    12   ar
    13    12    13   ar
    14    13    14   ar
    15    14    15   ar
    16     3     4   ar
    17     4     5   ar
    18     5     6   ar
    19     6     7   ar
    20     7    24    1
    21    24    25    1
    22    24    26    1
    23    24    27    1
    24     7     8   ar
    25     8     9   ar
    26    19    20   ar
    27    20    16   ar
    28     9     1   ar
    29    15    10   ar
    30     9     4   ar
@<TRIPOS>MOLECULE
*****
 27 30 0 0 0
SMALL
GASTEIGER

@<TRIPOS>ATOM
      1 N1         62.8373   87.9440   11.9469 N.ar    1  <1>        -0.2067
      2 N2         63.1881   89.3084   12.4619 N.ar    1  <1>        -0.1634
      3 C1         63.9480   89.1386   13.7440 C.ar    1  <1>         0.1027
      4 C2         64.0668   87.6692   14.0213 C.ar    1  <1>         0.0371
      5 C3         64.7114   86.9081   15.1417 C.ar    1  <1>         0.0030
      6 C4         64.6695   85.4088   15.1513 C.ar    1  <1>         0.0040
      7 C5         63.9830   84.6705   14.0406 C.ar    1  <1>         0.0729
      8 C6         63.3384   85.4316   12.9202 C.ar    1  <1>         0.0231
      9 C7         63.3803   86.9309   12.9106 C.ar    1  <1>         0.0863
     10 C8         64.4934   90.2440   14.5988 C.ar    1  <1>         0.0194
     11 C9         63.7533   90.6744   15.8306 C.ar    1  <1>         0.0016
     12 C10        64.2987   91.7798   16.6854 C.ar    1  <1>         0.0000
     13 C11        65.5840   92.4549   16.3084 C.ar    1  <1>         0.0000
     14 C12        66.3240   92.0245   15.0766 C.ar    1  <1>         0.0000
     15 C13        65.7786   90.9191   14.2219 C.ar    1  <1>         0.0016
     16 C14        61.3018   86.5539    8.6642 C.ar    1  <1>         0.1039
     17 C15        60.5117   87.8166    8.8419 C.ar    1  <1>         0.0587
     18 S1         60.9907   88.4910   10.0932 S.2     1  <1>        -0.0466
     19 C16        62.0769   87.6451   10.6889 C.ar    1  <1>         0.1954
     20 N3         62.2691   86.4481    9.8058 N.ar    1  <1>        -0.2192
     21 O1         59.7926   85.2817    6.9748 O.co2   1  <1>        -0.5430
     22 C17        61.1510   85.5700    7.5422 C.2     1  <1>         0.0911
     23 O2         62.3585   84.8743    6.9873 O.co2   1  <1>        -0.5430
     24 C18        63.9411   83.1711   14.0503 C.3     1  <1>         0.4186
     25 F1         63.8992   81.6717   14.0599 F       1  <1>        -0.1659
     26 F2         64.4378   83.1663   15.4656 F       1  <1>        -0.1659
     27 F3         63.4444   83.1758   12.6350 F       1  <1>        -0.1659
@<TRIPOS>UNITY_ATOM_ATTR
21 1
charge -1
@<TRIPOS>BOND
     1    21    22   ar
     2    22    23   ar
     3    22    16    1
     4    16    17   ar
     5    17    18   ar
     6    18    19   ar
     7    19     1    1
     8     1     2   ar
     9     2     3   ar
    10     3    10    1
    11    10    11   ar
    12    11    12   ar
    13    12    13   ar
    14    13    14   ar
    15    14    15   ar
    16     3     4   ar
    17     4     5   ar
    18     5     6   ar
    19     6     7   ar
    20     7    24    1
    21    24    25    1
    22    24    26    1
    23    24    27    1
    24     7     8   ar
    25     8     9   ar
    26    19    20   ar
    27    20    16   ar
    28     9     1   ar
    29    15    10   ar
    30     9     4   ar
@<TRIPOS>MOLECULE
*****
 27 30 0 0 0
SMALL
GASTEIGER

@<TRIPOS>ATOM
      1 N1         62.6342   86.1135   12.2214 N.ar    1  <1>        -0.2067
      2 N2         61.7155   86.0071   11.0405 N.ar    1  <1>        -0.1634
      3 C1         61.5138   87.3855   10.4845 C.ar    1  <1>         0.1027
      4 C2         62.3079   88.3439   11.3218 C.ar    1  <1>         0.0371
      5 C3         62.4899   89.8308   11.2454 C.ar    1  <1>         0.0030
      6 C4         63.3643   90.5316   12.2425 C.ar    1  <1>         0.0040
      7 C5         64.0568   89.7454   13.3160 C.ar    1  <1>         0.0729
      8 C6         63.8748   88.2585   13.3924 C.ar    1  <1>         0.0231
      9 C7         63.0003   87.5577   12.3953 C.ar    1  <1>         0.0863
     10 C8         60.6668   87.7430    9.2992 C.ar    1  <1>         0.0194
     11 C9         59.9422   86.6684    8.5439 C.ar    1  <1>         0.0016
     12 C10        59.0951   87.0259    7.3586 C.ar    1  <1>         0.0000
     13 C11        58.9726   88.4577    6.9287 C.ar    1  <1>         0.0000
     14 C12        59.6972   89.5321    7.6841 C.ar    1  <1>         0.0000
     15 C13        60.5443   89.1747    8.8693 C.ar    1  <1>         0.0016
     16 C14        63.3625   82.7601   14.0352 C.ar    1  <1>         0.1039
     17 C15        64.2931   83.6886   14.7578 C.ar    1  <1>         0.0587
     18 S1         64.1335   85.0578   14.1663 S.2     1  <1>        -0.0466
     19 C16        63.1043   84.9755   13.0781 C.ar    1  <1>         0.1954
     20 N3         62.6279   83.5556   12.9972 N.ar    1  <1>        -0.2192
     21 O1         64.4021   80.4073   14.4012 O.co2   1  <1>        -0.5430
     22 C17        63.1959   81.2938   14.3036 C.2     1  <1>         0.0911
     23 O2         61.8232   80.7138   14.4745 O.co2   1  <1>        -0.5430
     24 C18        64.9312   90.4462   14.3131 C.3     1  <1>         0.4186
     25 F1         65.8056   91.1470   15.3102 F       1  <1>        -0.1659
     26 F2         65.5749   91.2228   13.2029 F       1  <1>        -0.1659
     27 F3         64.2876   89.6697   15.4233 F       1  <1>        -0.1659
@<TRIPOS>UNITY_ATOM_ATTR
21 1
charge -1
@<TRIPOS>BOND
     1    21    22   ar
     2    22    23   ar
     3    22    16    1
     4    16    17   ar
     5    17    18   ar
     6    18    19   ar
     7    19     1    1
     8     1     2   ar
     9     2     3   ar
    10     3    10    1
    11    10    11   ar
    12    11    12   ar
    13    12    13   ar
    14    13    14   ar
    15    14    15   ar
    16     3     4   ar
    17     4     5   ar
    18     5     6   ar
    19     6     7   ar
    20     7    24    1
    21    24    25    1
    22    24    26    1
    23    24    27    1
    24     7     8   ar
    25     8     9   ar
    26    19    20   ar
    27    20    16   ar
    28     9     1   ar
    29    15    10   ar
    30     9     4   ar
