@<TRIPOS>MOLECULE
*****
 32 35 0 0 0
SMALL
GASTEIGER

@<TRIPOS>ATOM
      1 C          62.6901   90.0756   11.0481 C.ar    1  UNL1        0.1311
      2 C          63.1353   89.0147   12.0107 C.ar    1  UNL1        0.0339
      3 C          62.7810   87.5788   11.7607 C.ar    1  UNL1        0.0027
      4 C          61.9814   87.2037   10.5483 C.ar    1  UNL1        0.0283
      5 C          61.5362   88.2645    9.5858 C.ar    1  UNL1        0.2196
      6 F          60.7366   87.8894    8.3734 F       1  UNL1       -0.1835
      7 N          61.8906   89.7004    9.8357 N.ar    1  UNL1       -0.2035
      8 N          63.0445   91.5115   11.2980 N.pl3   1  UNL1       -0.3143
      9 H          62.3410   92.1579   11.5359 H       1  UNL1        0.1485
     10 C          64.4706   91.9627   11.1854 C.3     1  UNL1        0.1200
     11 C          66.9064   92.6712   14.9022 C.ar    1  UNL1        0.2275
     12 C          65.7903   91.6691   14.9166 C.ar    1  UNL1        0.0576
     13 C          64.9784   91.4330   13.6776 C.ar    1  UNL1        0.0068
     14 C          65.2825   92.1989   12.4243 C.ar    1  UNL1        0.0508
     15 C          66.3986   93.2010   12.4099 C.ar    1  UNL1        0.2249
     16 N          67.2105   93.4371   13.6489 N.ar    1  UNL1       -0.1769
     17 C          68.9490   93.7628   16.0795 C.3     1  UNL1        0.2542
     18 O          67.7183   92.9073   16.1411 O.3     1  UNL1       -0.4561
     19 O          66.7028   93.9669   11.1566 O.3     1  UNL1       -0.4562
     20 C          66.2539   95.3917   11.0207 C.3     1  UNL1        0.2542
     21 C          61.6270   85.7677   10.2984 C.3     1  UNL1        0.0582
     22 C          62.6539   84.6944   10.5073 C.ar    1  UNL1        0.0044
     23 C          63.4956   84.0598    9.4402 C.ar    1  UNL1        0.0966
     24 N          64.3813   83.0406   10.0935 N.ar    1  UNL1       -0.2273
     25 C          64.0870   83.0453   11.5643 C.ar    1  UNL1        0.1402
     26 N          64.6532   82.2509   12.7037 N.ar    1  UNL1       -0.3377
     27 C          64.1518   82.4787   14.0990 C.ar    1  UNL1        0.0691
     28 C          63.0842   83.5009   14.3547 C.ar    1  UNL1       -0.0047
     29 C          62.5827   83.7286   15.7500 C.3     1  UNL1        0.0326
     30 C          62.5180   84.2952   13.2153 C.ar    1  UNL1       -0.0001
     31 C          63.0194   84.0675   11.8201 C.ar    1  UNL1        0.0315
     32 H          65.3539   81.5801   12.5359 H       1  UNL1        0.1674
@<TRIPOS>BOND
     1    17    18    1
     2    18    11    1
     3    11    12   ar
     4    12    13   ar
     5    13    14   ar
     6    14    10    1
     7    10     8    1
     8     8     1    1
     9     1     2   ar
    10     2     3   ar
    11     3     4   ar
    12     4    21    1
    13    21    22    1
    14    22    23   ar
    15    23    24   ar
    16    24    25   ar
    17    25    26   ar
    18    26    27   ar
    19    27    28   ar
    20    28    29    1
    21    28    30   ar
    22    30    31   ar
    23     4     5   ar
    24     5     6    1
    25     5     7   ar
    26    14    15   ar
    27    15    19    1
    28    19    20    1
    29    15    16   ar
    30    16    11   ar
    31     7     1   ar
    32    31    22   ar
    33    31    25    1
    34     8     9    1
    35    26    32    1
@<TRIPOS>MOLECULE
*****
 32 35 0 0 0
SMALL
GASTEIGER

@<TRIPOS>ATOM
      1 C          63.7133   89.4448   15.6230 C.ar    1  UNL1        0.1311
      2 C          64.3092   88.6004   14.5358 C.ar    1  UNL1        0.0339
      3 C          64.2559   87.1046   14.6336 C.ar    1  UNL1        0.0027
      4 C          63.6068   86.4531   15.8186 C.ar    1  UNL1        0.0283
      5 C          63.0109   87.2975   16.9058 C.ar    1  UNL1        0.2196
      6 F          62.3618   86.6460   18.0908 F       1  UNL1       -0.1835
      7 N          63.0642   88.7933   16.8080 N.ar    1  UNL1       -0.2035
      8 N          63.7666   90.9406   15.5252 N.pl3   1  UNL1       -0.3143
      9 H          62.9426   91.4701   15.6254 H       1  UNL1        0.1485
     10 C          65.0752   91.6299   15.2750 C.3     1  UNL1        0.1200
     11 C          66.0803   93.1198   11.1495 C.ar    1  UNL1        0.2275
     12 C          64.9414   92.1634   11.3447 C.ar    1  UNL1        0.0576
     13 C          64.6063   91.6668   12.7199 C.ar    1  UNL1        0.0068
     14 C          65.4103   92.1266   13.8999 C.ar    1  UNL1        0.0508
     15 C          66.5492   93.0829   13.7047 C.ar    1  UNL1        0.2249
     16 N          66.8842   93.5796   12.3295 N.ar    1  UNL1       -0.1769
     17 C          67.8485   93.7251    9.3448 C.3     1  UNL1        0.2542
     18 O          66.4154   93.6165    9.7744 O.3     1  UNL1       -0.4561
     19 O          67.3531   93.5427   14.8847 O.3     1  UNL1       -0.4562
     20 C          68.6309   92.8424   15.2404 C.3     1  UNL1        0.2542
     21 C          63.5535   84.9572   15.9164 C.3     1  UNL1        0.0582
     22 C          63.9695   84.1139   14.7477 C.ar    1  UNL1        0.0044
     23 C          65.2103   84.2977   13.9251 C.ar    1  UNL1        0.0966
     24 N          65.2253   83.2362   12.8655 N.ar    1  UNL1       -0.2273
     25 C          63.9939   82.3963   13.0332 C.ar    1  UNL1        0.1402
     26 N          63.4791   81.2076   12.2769 N.ar    1  UNL1       -0.3377
     27 C          62.1881   80.5614   12.6839 C.ar    1  UNL1        0.0691
     28 C          61.4119   81.1039   13.8472 C.ar    1  UNL1       -0.0047
     29 C          60.1209   80.4577   14.2543 C.3     1  UNL1        0.0326
     30 C          61.9268   82.2926   14.6035 C.ar    1  UNL1       -0.0001
     31 C          63.2177   82.9387   14.1965 C.ar    1  UNL1        0.0315
     32 H          63.9885   80.8516   11.5134 H       1  UNL1        0.1674
@<TRIPOS>BOND
     1    17    18    1
     2    18    11    1
     3    11    12   ar
     4    12    13   ar
     5    13    14   ar
     6    14    10    1
     7    10     8    1
     8     8     1    1
     9     1     2   ar
    10     2     3   ar
    11     3     4   ar
    12     4    21    1
    13    21    22    1
    14    22    23   ar
    15    23    24   ar
    16    24    25   ar
    17    25    26   ar
    18    26    27   ar
    19    27    28   ar
    20    28    29    1
    21    28    30   ar
    22    30    31   ar
    23     4     5   ar
    24     5     6    1
    25     5     7   ar
    26    14    15   ar
    27    15    19    1
    28    19    20    1
    29    15    16   ar
    30    16    11   ar
    31     7     1   ar
    32    31    22   ar
    33    31    25    1
    34     8     9    1
    35    26    32    1
@<TRIPOS>MOLECULE
*****
 32 35 0 0 0
SMALL
GASTEIGER

@<TRIPOS>ATOM
      1 C          62.2877   90.0163   12.3200 C.ar    1  UNL1        0.1311
      2 C          62.9303   90.6915   11.1448 C.ar    1  UNL1        0.0339
      3 C          64.2307   91.4190   11.3168 C.ar    1  UNL1        0.0027
      4 C          64.8886   91.4712   12.6638 C.ar    1  UNL1        0.0283
      5 C          64.2459   90.7959   13.8390 C.ar    1  UNL1        0.2196
      6 F          64.9037   90.8481   15.1860 F       1  UNL1       -0.1835
      7 N          62.9455   90.0685   13.6670 N.ar    1  UNL1       -0.2035
      8 N          60.9872   89.2888   12.1481 N.pl3   1  UNL1       -0.3143
      9 H          60.6436   88.7170   12.8722 H       1  UNL1        0.1485
     10 C          60.2102   89.4324   10.8730 C.3     1  UNL1        0.1200
     11 C          60.2514   86.1198    7.8276 C.ar    1  UNL1        0.2275
     12 C          59.7180   87.4721    7.4577 C.ar    1  UNL1        0.0576
     13 C          59.7042   88.5763    8.4729 C.ar    1  UNL1        0.0068
     14 C          60.2239   88.3282    9.8580 C.ar    1  UNL1        0.0508
     15 C          60.7573   86.9759   10.2278 C.ar    1  UNL1        0.2249
     16 N          60.7711   85.8717    9.2127 N.ar    1  UNL1       -0.1769
     17 C          61.5390   84.6660    6.1018 C.3     1  UNL1        0.2542
     18 O          60.2651   85.0156    6.8125 O.3     1  UNL1       -0.4561
     19 O          61.2770   86.7278   11.6129 O.3     1  UNL1       -0.4562
     20 C          62.2345   85.6009   11.8641 C.3     1  UNL1        0.2542
     21 C          66.1891   92.1987   12.8357 C.3     1  UNL1        0.0582
     22 C          67.0095   92.5625   11.6338 C.ar    1  UNL1        0.0044
     23 C          68.2350   91.8438   11.1525 C.ar    1  UNL1        0.0966
     24 N          68.7313   92.5460    9.9234 N.ar    1  UNL1       -0.2273
     25 C          67.8126   93.6987    9.6452 C.ar    1  UNL1        0.1402
     26 N          67.8076   94.7403    8.5659 N.ar    1  UNL1       -0.3377
     27 C          66.7384   95.7921    8.5437 C.ar    1  UNL1        0.0691
     28 C          65.6743   95.8022    9.6008 C.ar    1  UNL1       -0.0047
     29 C          64.6050   96.8541    9.5785 C.3     1  UNL1        0.0326
     30 C          65.6793   94.7606   10.6801 C.ar    1  UNL1       -0.0001
     31 C          66.7485   93.7088   10.7023 C.ar    1  UNL1        0.0315
     32 H          68.5060   94.7336    7.8721 H       1  UNL1        0.1674
@<TRIPOS>BOND
     1    17    18    1
     2    18    11    1
     3    11    12   ar
     4    12    13   ar
     5    13    14   ar
     6    14    10    1
     7    10     8    1
     8     8     1    1
     9     1     2   ar
    10     2     3   ar
    11     3     4   ar
    12     4    21    1
    13    21    22    1
    14    22    23   ar
    15    23    24   ar
    16    24    25   ar
    17    25    26   ar
    18    26    27   ar
    19    27    28   ar
    20    28    29    1
    21    28    30   ar
    22    30    31   ar
    23     4     5   ar
    24     5     6    1
    25     5     7   ar
    26    14    15   ar
    27    15    19    1
    28    19    20    1
    29    15    16   ar
    30    16    11   ar
    31     7     1   ar
    32    31    22   ar
    33    31    25    1
    34     8     9    1
    35    26    32    1
@<TRIPOS>MOLECULE
*****
 32 35 0 0 0
SMALL
GASTEIGER

@<TRIPOS>ATOM
      1 C          60.8237   86.9270    9.0002 C.ar    1  UNL1        0.1311
      2 C          61.0779   86.4518   10.4000 C.ar    1  UNL1        0.0339
      3 C          62.0556   85.3418   10.6492 C.ar    1  UNL1        0.0027
      4 C          62.7790   84.7071    9.4987 C.ar    1  UNL1        0.0283
      5 C          62.5248   85.1824    8.0988 C.ar    1  UNL1        0.2196
      6 F          63.2482   84.5476    6.9483 F       1  UNL1       -0.1835
      7 N          61.5471   86.2923    7.8496 N.ar    1  UNL1       -0.2035
      8 N          59.8460   88.0370    8.7509 N.pl3   1  UNL1       -0.3143
      9 H          58.9474   87.8329    8.4044 H       1  UNL1        0.1485
     10 C          60.2374   89.4580    9.0295 C.3     1  UNL1        0.1200
     11 C          62.8580   90.4193   12.5592 C.ar    1  UNL1        0.2275
     12 C          63.3204   90.7469   11.1704 C.ar    1  UNL1        0.0576
     13 C          62.4469   90.4265    9.9938 C.ar    1  UNL1        0.0068
     14 C          61.1109   89.7784   10.2061 C.ar    1  UNL1        0.0508
     15 C          60.6484   89.4507   11.5949 C.ar    1  UNL1        0.2249
     16 N          61.5219   89.7712   12.7714 N.ar    1  UNL1       -0.1769
     17 C          64.2846   89.6322   14.5828 C.3     1  UNL1        0.2542
     18 O          63.7314   90.7397   13.7357 O.3     1  UNL1       -0.4561
     19 O          59.3124   88.8026   11.8071 O.3     1  UNL1       -0.4562
     20 C          58.5233   89.0997   13.0476 C.3     1  UNL1        0.2542
     21 C          63.7567   83.5971    9.7480 C.3     1  UNL1        0.0582
     22 C          63.5980   82.7137   10.9498 C.ar    1  UNL1        0.0044
     23 C          63.2110   81.2645   10.9339 C.ar    1  UNL1        0.0966
     24 N          63.1723   80.7796   12.3528 N.ar    1  UNL1       -0.2273
     25 C          63.5353   81.9290   13.2456 C.ar    1  UNL1        0.1402
     26 N          63.6602   82.0416   14.7362 N.ar    1  UNL1       -0.3377
     27 C          64.0482   83.3496   15.3595 C.ar    1  UNL1        0.0691
     28 C          64.3113   84.5449   14.4924 C.ar    1  UNL1       -0.0047
     29 C          64.6994   85.8529   15.1158 C.3     1  UNL1        0.0326
     30 C          64.1864   84.4323   13.0019 C.ar    1  UNL1       -0.0001
     31 C          63.7984   83.1244   12.3785 C.ar    1  UNL1        0.0315
     32 H          63.4875   81.2571   15.3053 H       1  UNL1        0.1674
@<TRIPOS>BOND
     1    17    18    1
     2    18    11    1
     3    11    12   ar
     4    12    13   ar
     5    13    14   ar
     6    14    10    1
     7    10     8    1
     8     8     1    1
     9     1     2   ar
    10     2     3   ar
    11     3     4   ar
    12     4    21    1
    13    21    22    1
    14    22    23   ar
    15    23    24   ar
    16    24    25   ar
    17    25    26   ar
    18    26    27   ar
    19    27    28   ar
    20    28    29    1
    21    28    30   ar
    22    30    31   ar
    23     4     5   ar
    24     5     6    1
    25     5     7   ar
    26    14    15   ar
    27    15    19    1
    28    19    20    1
    29    15    16   ar
    30    16    11   ar
    31     7     1   ar
    32    31    22   ar
    33    31    25    1
    34     8     9    1
    35    26    32    1
@<TRIPOS>MOLECULE
*****
 32 35 0 0 0
SMALL
GASTEIGER

@<TRIPOS>ATOM
      1 C          63.7662   89.4393   15.6193 C.ar    1  UNL1        0.1311
      2 C          64.4828   88.6389   14.5725 C.ar    1  UNL1        0.0339
      3 C          64.4131   87.1407   14.5958 C.ar    1  UNL1        0.0027
      4 C          63.6269   86.4430   15.6659 C.ar    1  UNL1        0.0283
      5 C          62.9103   87.2434   16.7127 C.ar    1  UNL1        0.2196
      6 F          62.1241   86.5457   17.7827 F       1  UNL1       -0.1835
      7 N          62.9800   88.7416   16.6893 N.ar    1  UNL1       -0.2035
      8 N          63.8358   90.9375   15.5960 N.pl3   1  UNL1       -0.3143
      9 H          63.0234   91.4705   15.7547 H       1  UNL1        0.1485
     10 C          65.1431   91.6237   15.3309 C.3     1  UNL1        0.1200
     11 C          66.0674   93.1906   11.2151 C.ar    1  UNL1        0.2275
     12 C          64.9721   92.1837   11.4057 C.ar    1  UNL1        0.0576
     13 C          64.6640   91.6614   12.7777 C.ar    1  UNL1        0.0068
     14 C          65.4512   92.1460   13.9590 C.ar    1  UNL1        0.0508
     15 C          66.5466   93.1529   13.7683 C.ar    1  UNL1        0.2249
     16 N          66.8547   93.6752   12.3964 N.ar    1  UNL1       -0.1769
     17 C          67.7941   93.7526    9.3569 C.3     1  UNL1        0.2542
     18 O          66.3756   93.7130    9.8432 O.3     1  UNL1       -0.4561
     19 O          67.3338   93.6376   14.9496 O.3     1  UNL1       -0.4562
     20 C          68.6671   93.0267   15.2641 C.3     1  UNL1        0.2542
     21 C          63.5573   84.9447   15.6891 C.3     1  UNL1        0.0582
     22 C          63.7938   84.1632   14.4308 C.ar    1  UNL1        0.0044
     23 C          64.5250   82.8575   14.3281 C.ar    1  UNL1        0.0966
     24 N          64.5237   82.4377   12.8881 N.ar    1  UNL1       -0.2273
     25 C          63.7919   83.4839   12.1008 C.ar    1  UNL1        0.1402
     26 N          63.4780   83.6033   10.6389 N.ar    1  UNL1       -0.3377
     27 C          62.7129   84.7891   10.1305 C.ar    1  UNL1        0.0691
     28 C          62.2618   85.8555   11.0840 C.ar    1  UNL1       -0.0047
     29 C          61.4967   87.0414   10.5755 C.3     1  UNL1        0.0326
     30 C          62.5757   85.7362   12.5459 C.ar    1  UNL1       -0.0001
     31 C          63.3408   84.5504   13.0543 C.ar    1  UNL1        0.0315
     32 H          63.7740   82.9033   10.0131 H       1  UNL1        0.1674
@<TRIPOS>BOND
     1    17    18    1
     2    18    11    1
     3    11    12   ar
     4    12    13   ar
     5    13    14   ar
     6    14    10    1
     7    10     8    1
     8     8     1    1
     9     1     2   ar
    10     2     3   ar
    11     3     4   ar
    12     4    21    1
    13    21    22    1
    14    22    23   ar
    15    23    24   ar
    16    24    25   ar
    17    25    26   ar
    18    26    27   ar
    19    27    28   ar
    20    28    29    1
    21    28    30   ar
    22    30    31   ar
    23     4     5   ar
    24     5     6    1
    25     5     7   ar
    26    14    15   ar
    27    15    19    1
    28    19    20    1
    29    15    16   ar
    30    16    11   ar
    31     7     1   ar
    32    31    22   ar
    33    31    25    1
    34     8     9    1
    35    26    32    1
@<TRIPOS>MOLECULE
*****
 32 35 0 0 0
SMALL
GASTEIGER

@<TRIPOS>ATOM
      1 C          63.5171   87.4195   16.0514 C.ar    1  UNL1        0.1311
      2 C          64.2856   87.2967   14.7691 C.ar    1  UNL1        0.0339
      3 C          64.2817   86.0008   14.0137 C.ar    1  UNL1        0.0027
      4 C          63.5092   84.8279   14.5405 C.ar    1  UNL1        0.0283
      5 C          62.7407   84.9508   15.8227 C.ar    1  UNL1        0.2196
      6 F          61.9682   83.7778   16.3495 F       1  UNL1       -0.1835
      7 N          62.7446   86.2466   16.5782 N.ar    1  UNL1       -0.2035
      8 N          63.5210   88.7153   16.8070 N.pl3   1  UNL1       -0.3143
      9 H          63.8484   88.7430   17.7350 H       1  UNL1        0.1485
     10 C          63.0262   89.9690   16.1486 C.3     1  UNL1        0.1200
     11 C          65.8201   92.4436   13.6346 C.ar    1  UNL1        0.2275
     12 C          65.9813   92.4124   15.1256 C.ar    1  UNL1        0.0576
     13 C          65.0500   91.5876   15.9635 C.ar    1  UNL1        0.0068
     14 C          63.9575   90.7938   15.3105 C.ar    1  UNL1        0.0508
     15 C          63.7963   90.8250   13.8195 C.ar    1  UNL1        0.2249
     16 N          64.7276   91.6499   12.9816 N.ar    1  UNL1       -0.1769
     17 C          66.2029   94.3285   11.8880 C.3     1  UNL1        0.2542
     18 O          66.7514   93.2684   12.7966 O.3     1  UNL1       -0.4561
     19 O          62.7037   90.0313   13.1665 O.3     1  UNL1       -0.4562
     20 C          62.9889   89.2462   11.9207 C.3     1  UNL1        0.2542
     21 C          63.5053   83.5320   13.7849 C.3     1  UNL1        0.0582
     22 C          63.7524   83.5257   12.3054 C.ar    1  UNL1        0.0044
     23 C          64.7242   82.6449   11.5776 C.ar    1  UNL1        0.0966
     24 N          64.6435   82.9739   10.1164 N.ar    1  UNL1       -0.2273
     25 C          63.6219   84.0581    9.9411 C.ar    1  UNL1        0.1402
     26 N          63.1219   84.7789    8.7244 N.ar    1  UNL1       -0.3377
     27 C          62.0712   85.8407    8.8605 C.ar    1  UNL1        0.0691
     28 C          61.5204   86.1817   10.2135 C.ar    1  UNL1       -0.0047
     29 C          60.4697   87.2435   10.3496 C.3     1  UNL1        0.0326
     30 C          62.0204   85.4609   11.4302 C.ar    1  UNL1       -0.0001
     31 C          63.0711   84.3991   11.2940 C.ar    1  UNL1        0.0315
     32 H          63.4834   84.5551    7.8364 H       1  UNL1        0.1674
@<TRIPOS>BOND
     1    17    18    1
     2    18    11    1
     3    11    12   ar
     4    12    13   ar
     5    13    14   ar
     6    14    10    1
     7    10     8    1
     8     8     1    1
     9     1     2   ar
    10     2     3   ar
    11     3     4   ar
    12     4    21    1
    13    21    22    1
    14    22    23   ar
    15    23    24   ar
    16    24    25   ar
    17    25    26   ar
    18    26    27   ar
    19    27    28   ar
    20    28    29    1
    21    28    30   ar
    22    30    31   ar
    23     4     5   ar
    24     5     6    1
    25     5     7   ar
    26    14    15   ar
    27    15    19    1
    28    19    20    1
    29    15    16   ar
    30    16    11   ar
    31     7     1   ar
    32    31    22   ar
    33    31    25    1
    34     8     9    1
    35    26    32    1
@<TRIPOS>MOLECULE
*****
 32 35 0 0 0
SMALL
GASTEIGER

@<TRIPOS>ATOM
      1 C          61.8375   89.2986   11.3805 C.ar    1  UNL1        0.1311
      2 C          62.1571   89.9578   10.0716 C.ar    1  UNL1        0.0339
      3 C          63.1380   91.0916   10.0226 C.ar    1  UNL1        0.0027
      4 C          63.7991   91.5663   11.2826 C.ar    1  UNL1        0.0283
      5 C          63.4795   90.9071   12.5916 C.ar    1  UNL1        0.2196
      6 F          64.1407   91.3818   13.8515 F       1  UNL1       -0.1835
      7 N          62.4987   89.7733   12.6405 N.ar    1  UNL1       -0.2035
      8 N          60.8567   88.1648   11.4295 N.pl3   1  UNL1       -0.3143
      9 H          60.1578   88.1482   12.1227 H       1  UNL1        0.1485
     10 C          60.9407   87.0563   10.4225 C.3     1  UNL1        0.1200
     11 C          63.7815   83.6290   11.0808 C.ar    1  UNL1        0.2275
     12 C          63.1170   84.2882   12.2530 C.ar    1  UNL1        0.0576
     13 C          62.1701   85.4306   12.0335 C.ar    1  UNL1        0.0068
     14 C          61.8876   85.9139   10.6419 C.ar    1  UNL1        0.0508
     15 C          62.5521   85.2547    9.4697 C.ar    1  UNL1        0.2249
     16 N          63.4990   84.1123    9.6892 N.ar    1  UNL1       -0.1769
     17 C          64.5446   81.5757   12.4777 C.3     1  UNL1        0.2542
     18 O          64.7284   82.4866   11.3002 O.3     1  UNL1       -0.4561
     19 O          62.2696   85.7379    8.0780 O.3     1  UNL1       -0.4562
     20 C          62.4142   84.8017    6.9152 C.3     1  UNL1        0.2542
     21 C          64.7800   92.7002   11.2336 C.3     1  UNL1        0.0582
     22 C          66.2514   92.4234   11.3247 C.ar    1  UNL1        0.0044
     23 C          67.1733   92.1663   10.1697 C.ar    1  UNL1        0.0966
     24 N          68.5510   91.9392   10.7179 N.ar    1  UNL1       -0.2273
     25 C          68.4805   92.0559   12.2117 C.ar    1  UNL1        0.1402
     26 N          69.5268   91.9284   13.2789 N.ar    1  UNL1       -0.3377
     27 C          69.1519   92.1001   14.7211 C.ar    1  UNL1        0.0691
     28 C          67.7307   92.3994   15.0961 C.ar    1  UNL1       -0.0047
     29 C          67.3558   92.5711   16.5383 C.3     1  UNL1        0.0326
     30 C          66.6844   92.5269   14.0289 C.ar    1  UNL1       -0.0001
     31 C          67.0593   92.3552   12.5867 C.ar    1  UNL1        0.0315
     32 H          70.4596   91.7320   13.0328 H       1  UNL1        0.1674
@<TRIPOS>BOND
     1    17    18    1
     2    18    11    1
     3    11    12   ar
     4    12    13   ar
     5    13    14   ar
     6    14    10    1
     7    10     8    1
     8     8     1    1
     9     1     2   ar
    10     2     3   ar
    11     3     4   ar
    12     4    21    1
    13    21    22    1
    14    22    23   ar
    15    23    24   ar
    16    24    25   ar
    17    25    26   ar
    18    26    27   ar
    19    27    28   ar
    20    28    29    1
    21    28    30   ar
    22    30    31   ar
    23     4     5   ar
    24     5     6    1
    25     5     7   ar
    26    14    15   ar
    27    15    19    1
    28    19    20    1
    29    15    16   ar
    30    16    11   ar
    31     7     1   ar
    32    31    22   ar
    33    31    25    1
    34     8     9    1
    35    26    32    1
@<TRIPOS>MOLECULE
*****
 32 35 0 0 0
SMALL
GASTEIGER

@<TRIPOS>ATOM
      1 C          63.4694   83.7573   11.1214 C.ar    1  UNL1        0.1311
      2 C          62.3641   84.5522   11.7511 C.ar    1  UNL1        0.0339
      3 C          61.5872   85.5379   10.9297 C.ar    1  UNL1        0.0027
      4 C          61.9155   85.7287    9.4786 C.ar    1  UNL1        0.0283
      5 C          63.0208   84.9339    8.8488 C.ar    1  UNL1        0.2196
      6 F          63.3491   85.1247    7.3977 F       1  UNL1       -0.1835
      7 N          63.7977   83.9482    9.6703 N.ar    1  UNL1       -0.2035
      8 N          64.2463   82.7716   11.9427 N.pl3   1  UNL1       -0.3143
      9 H          64.2741   81.8238   11.6779 H       1  UNL1        0.1485
     10 C          64.9810   83.2299   13.1676 C.3     1  UNL1        0.1200
     11 C          62.7468   85.2648   16.5018 C.ar    1  UNL1        0.2275
     12 C          63.8248   86.0008   15.7627 C.ar    1  UNL1        0.0576
     13 C          64.5695   85.3225   14.6513 C.ar    1  UNL1        0.0068
     14 C          64.2363   83.9081   14.2790 C.ar    1  UNL1        0.0508
     15 C          63.1583   83.1721   15.0181 C.ar    1  UNL1        0.2249
     16 N          62.4136   83.8505   16.1295 N.ar    1  UNL1       -0.1769
     17 C          62.6865   86.9837   18.4491 C.3     1  UNL1        0.2542
     18 O          62.0021   85.9430   17.6132 O.3     1  UNL1       -0.4561
     19 O          62.8250   81.7578   14.6458 O.3     1  UNL1       -0.4562
     20 C          61.5059   81.4416   14.0058 C.3     1  UNL1        0.2542
     21 C          61.1385   86.7145    8.6572 C.3     1  UNL1        0.0582
     22 C          60.8686   88.0894    9.1928 C.ar    1  UNL1        0.0044
     23 C          59.8836   89.0746    8.6367 C.ar    1  UNL1        0.0966
     24 N          59.9425   90.3145    9.4789 N.ar    1  UNL1       -0.2273
     25 C          60.9638   90.0955   10.5555 C.ar    1  UNL1        0.1402
     26 N          61.4466   90.9707   11.6739 N.ar    1  UNL1       -0.3377
     27 C          62.5017   90.4707   12.6155 C.ar    1  UNL1        0.0691
     28 C          63.0741   89.0955   12.4387 C.ar    1  UNL1       -0.0047
     29 C          64.1292   88.5955   13.3804 C.3     1  UNL1        0.0326
     30 C          62.5913   88.2203   11.3203 C.ar    1  UNL1       -0.0001
     31 C          61.5362   88.7203   10.3787 C.ar    1  UNL1        0.0315
     32 H          61.0710   91.8733   11.7899 H       1  UNL1        0.1674
@<TRIPOS>BOND
     1    17    18    1
     2    18    11    1
     3    11    12   ar
     4    12    13   ar
     5    13    14   ar
     6    14    10    1
     7    10     8    1
     8     8     1    1
     9     1     2   ar
    10     2     3   ar
    11     3     4   ar
    12     4    21    1
    13    21    22    1
    14    22    23   ar
    15    23    24   ar
    16    24    25   ar
    17    25    26   ar
    18    26    27   ar
    19    27    28   ar
    20    28    29    1
    21    28    30   ar
    22    30    31   ar
    23     4     5   ar
    24     5     6    1
    25     5     7   ar
    26    14    15   ar
    27    15    19    1
    28    19    20    1
    29    15    16   ar
    30    16    11   ar
    31     7     1   ar
    32    31    22   ar
    33    31    25    1
    34     8     9    1
    35    26    32    1
@<TRIPOS>MOLECULE
*****
 32 35 0 0 0
SMALL
GASTEIGER

@<TRIPOS>ATOM
      1 C          64.2317   88.8527   14.4097 C.ar    1  UNL1        0.1311
      2 C          63.5640   88.6955   13.0757 C.ar    1  UNL1        0.0339
      3 C          63.1649   87.3326   12.5928 C.ar    1  UNL1        0.0027
      4 C          63.4333   86.1270   13.4438 C.ar    1  UNL1        0.0283
      5 C          64.1010   86.2841   14.7778 C.ar    1  UNL1        0.2196
      6 F          64.3694   85.0785   15.6289 F       1  UNL1       -0.1835
      7 N          64.5001   87.6470   15.2607 N.ar    1  UNL1       -0.2035
      8 N          64.6309   90.2155   14.8926 N.pl3   1  UNL1       -0.3143
      9 H          65.0881   90.3164   15.7587 H       1  UNL1        0.1485
     10 C          64.3335   91.4246   14.0561 C.3     1  UNL1        0.1200
     11 C          67.2881   92.7944   10.9507 C.ar    1  UNL1        0.2275
     12 C          65.8259   92.7367   10.6209 C.ar    1  UNL1        0.0576
     13 C          64.8411   92.2801   11.6561 C.ar    1  UNL1        0.0068
     14 C          65.3184   91.8812   13.0211 C.ar    1  UNL1        0.0508
     15 C          66.7805   91.9389   13.3508 C.ar    1  UNL1        0.2249
     16 N          67.7654   92.3955   12.3157 N.ar    1  UNL1       -0.1769
     17 C          67.9730   94.4568    9.0752 C.3     1  UNL1        0.2542
     18 O          68.2730   93.2510    9.9157 O.3     1  UNL1       -0.4561
     19 O          67.2579   91.5401   14.7158 O.3     1  UNL1       -0.4562
     20 C          67.4802   92.5857   15.7679 C.3     1  UNL1        0.2542
     21 C          63.0341   84.7640   12.9609 C.3     1  UNL1        0.0582
     22 C          63.3638   84.3381   11.5609 C.ar    1  UNL1        0.0044
     23 C          64.4052   83.3327   11.1674 C.ar    1  UNL1        0.0966
     24 N          64.3950   83.2160    9.6720 N.ar    1  UNL1       -0.2273
     25 C          63.3474   84.1492    9.1413 C.ar    1  UNL1        0.1402
     26 N          62.8914   84.4571    7.7459 N.ar    1  UNL1       -0.3377
     27 C          61.7981   85.4585    7.5179 C.ar    1  UNL1        0.0691
     28 C          61.1608   86.1519    8.6854 C.ar    1  UNL1       -0.0047
     29 C          60.0675   87.1533    8.4573 C.3     1  UNL1        0.0326
     30 C          61.6168   85.8440   10.0808 C.ar    1  UNL1       -0.0001
     31 C          62.7100   84.8427   10.3088 C.ar    1  UNL1        0.0315
     32 H          63.3097   84.0020    6.9796 H       1  UNL1        0.1674
@<TRIPOS>BOND
     1    17    18    1
     2    18    11    1
     3    11    12   ar
     4    12    13   ar
     5    13    14   ar
     6    14    10    1
     7    10     8    1
     8     8     1    1
     9     1     2   ar
    10     2     3   ar
    11     3     4   ar
    12     4    21    1
    13    21    22    1
    14    22    23   ar
    15    23    24   ar
    16    24    25   ar
    17    25    26   ar
    18    26    27   ar
    19    27    28   ar
    20    28    29    1
    21    28    30   ar
    22    30    31   ar
    23     4     5   ar
    24     5     6    1
    25     5     7   ar
    26    14    15   ar
    27    15    19    1
    28    19    20    1
    29    15    16   ar
    30    16    11   ar
    31     7     1   ar
    32    31    22   ar
    33    31    25    1
    34     8     9    1
    35    26    32    1
