@<TRIPOS>MOLECULE
*****
 66 73 0 0 0
SMALL
GASTEIGER

@<TRIPOS>ATOM
      1 N          63.6563   96.5952   -5.0274 N.3     1  UNL1       -0.1862
      2 C          62.8800   96.5454   -6.3100 C.3     1  UNL1        0.1775
      3 C          61.3872   96.4022   -6.2781 C.2     1  UNL1        0.2452
      4 O          60.6110   96.3524   -7.5607 O.2     1  UNL1       -0.2732
      5 N          60.6706   96.3089   -4.9637 N.am    1  UNL1       -0.2541
      6 C          59.1778   96.1657   -4.9318 C.3     1  UNL1        0.1577
      7 C          58.4612   96.0724   -3.6174 C.2     1  UNL1        0.2445
      8 O          56.9684   95.9293   -3.5855 O.2     1  UNL1       -0.2731
      9 N          59.2374   96.1222   -2.3347 N.am    1  UNL1       -0.2705
     10 C          60.7303   96.2654   -2.3666 C.3     1  UNL1        0.1359
     11 C          61.4469   96.3587   -3.6811 C.3     1  UNL1        0.1908
     12 N          62.9397   96.5018   -3.7130 N.am    1  UNL1       -0.1863
     13 C          63.7159   96.5516   -2.4304 C.2     1  UNL1        0.3191
     14 O          62.9993   96.4583   -1.1160 O.2     1  UNL1       -0.2512
     15 N          65.2087   96.6948   -2.4622 N.am    1  UNL1       -0.2836
     16 H          65.6790   96.7560   -3.3250 H       1  UNL1        0.1513
     17 C          65.1491   96.7383   -5.0593 C.3     1  UNL1        0.1188
     18 C          67.4143   96.3870   -6.2821 C.2     1  UNL1       -0.0034
     19 C          65.9152   96.3349   -6.2841 C.2     1  UNL1       -0.0071
     20 C          58.4016   96.1159   -6.2143 C.3     1  UNL1        0.0556
     21 C          57.5318   94.9325   -6.5191 C.ar    1  UNL1       -0.0198
     22 C          58.1321   93.5598   -6.5934 C.ar    1  UNL1       -0.0011
     23 C          57.2623   92.3764   -6.8982 C.ar    1  UNL1        0.0363
     24 C          55.7923   92.5655   -7.1287 C.ar    1  UNL1        0.1337
     25 O          54.9225   91.3821   -7.4335 O.3     1  UNL1       -0.5055
     26 C          55.1920   93.9382   -7.0545 C.ar    1  UNL1        0.0363
     27 C          56.0617   95.1217   -6.7497 C.ar    1  UNL1       -0.0011
     28 H          55.2975   90.5246   -7.4799 H       1  UNL1        0.2922
     29 C          58.5208   96.0289   -1.0203 C.3     1  UNL1        0.1217
     30 C          58.4322   94.7127   -0.3062 C.ar    1  UNL1        0.0135
     31 C          57.6352   93.5894   -0.9001 C.ar    1  UNL1       -0.0012
     32 C          57.5466   92.2732   -0.1861 C.ar    1  UNL1       -0.0002
     33 C          58.2549   92.0805    1.1220 C.ar    1  UNL1        0.0015
     34 C          59.0520   93.2039    1.7159 C.ar    1  UNL1        0.0170
     35 C          59.8512   93.3082    2.9810 C.ar    1  UNL1        0.0201
     36 C          60.4338   94.6887    3.0487 C.ar    1  UNL1        0.0760
     37 N          59.9946   95.4376    1.8256 N.ar    1  UNL1       -0.3242
     38 C          60.3475   96.8554    1.4858 C.3     1  UNL1        0.1305
     39 C          59.1406   94.5200    1.0019 C.ar    1  UNL1        0.0575
     40 C          60.0355   92.2224    3.9995 C.ar    1  UNL1        0.0208
     41 C          61.3509   91.5095    4.1061 C.ar    1  UNL1        0.0045
     42 C          61.5351   90.4238    5.1246 C.ar    1  UNL1        0.0345
     43 C          60.4040   90.0511    6.0365 C.ar    1  UNL1        0.1353
     44 N          59.0885   90.7640    5.9299 N.ar    1  UNL1       -0.2290
     45 C          58.9043   91.8497    4.9114 C.ar    1  UNL1        0.1003
     46 N          60.5882   88.9654    7.0549 N.am    1  UNL1       -0.2535
     47 C          61.3273   89.2496    8.3289 C.2     1  UNL1        0.3088
     48 O          61.8821   90.6196    8.5844 O.2     1  UNL1       -0.2522
     49 N          61.5116   88.1639    9.3473 N.am    1  UNL1       -0.2610
     50 C          62.2506   88.4482   10.6213 C.3     1  UNL1        0.1141
     51 C          62.4349   87.3625   11.6398 C.3     1  UNL1        0.1170
     52 N          61.8801   85.9925   11.3843 N.3     1  UNL1       -0.1559
     53 C          61.1411   85.7082   10.1103 C.3     1  UNL1        0.1170
     54 C          60.9568   86.7939    9.0919 C.3     1  UNL1        0.1141
     55 H          60.2241   88.0662    6.8872 H       1  UNL1        0.1578
     56 S          62.0644   84.9068   12.4027 S.O2    1  UNL1        0.0458
     57 C          62.2487   83.8209   13.4211 C.3     1  UNL1        0.1960
     58 O          61.8232   85.8976   13.5027 O.2     1  UNL1       -0.1572
     59 O          62.3055   83.9159   11.3026 O.2     1  UNL1       -0.1572
     60 C          65.9849   96.7446   -1.1797 C.3     1  UNL1        0.1177
     61 C          65.4640   96.0438    0.0399 C.ar    1  UNL1       -0.0025
     62 C          65.1678   94.5742   -0.0086 C.ar    1  UNL1       -0.0026
     63 C          64.6469   93.8734    1.2110 C.ar    1  UNL1       -0.0003
     64 C          64.4222   94.6422    2.4792 C.ar    1  UNL1       -0.0000
     65 C          64.7184   96.1119    2.5278 C.ar    1  UNL1       -0.0003
     66 C          65.2393   96.8127    1.3082 C.ar    1  UNL1       -0.0026
@<TRIPOS>BOND
     1    18    19    2
     2    19    17    1
     3    17     1    1
     4     1     2    1
     5     2     3    1
     6     3     4    2
     7     3     5   am
     8     5     6    1
     9     6    20    1
    10    20    21    1
    11    21    22   ar
    12    22    23   ar
    13    23    24   ar
    14    24    25    1
    15    24    26   ar
    16    26    27   ar
    17     6     7    1
    18     7     8    2
    19     7     9   am
    20     9    29    1
    21    29    30    1
    22    30    31   ar
    23    31    32   ar
    24    32    33   ar
    25    33    34   ar
    26    34    35   ar
    27    35    40    1
    28    40    41   ar
    29    41    42   ar
    30    42    43   ar
    31    43    46    1
    32    46    47   am
    33    47    48    2
    34    47    49   am
    35    49    50    1
    36    50    51    1
    37    51    52    1
    38    52    56    1
    39    56    57    1
    40    56    58    2
    41    56    59    2
    42    52    53    1
    43    53    54    1
    44    43    44   ar
    45    44    45   ar
    46    35    36   ar
    47    36    37   ar
    48    37    38    1
    49    37    39   ar
    50     9    10    1
    51    10    11    1
    52    11    12    1
    53    12    13   am
    54    13    14    2
    55    13    15   am
    56    15    60    1
    57    60    61    1
    58    61    62   ar
    59    62    63   ar
    60    63    64   ar
    61    64    65   ar
    62    65    66   ar
    63    12     1    1
    64    66    61   ar
    65    11     5    1
    66    27    21   ar
    67    39    30   ar
    68    39    34   ar
    69    45    40   ar
    70    54    49    1
    71    25    28    1
    72    46    55    1
    73    15    16    1
@<TRIPOS>MOLECULE
*****
 66 73 0 0 0
SMALL
GASTEIGER

@<TRIPOS>ATOM
      1 N          65.5172   89.8824   13.8197 N.3     1  UNL1       -0.1862
      2 C          65.9442   88.7610   14.7196 C.3     1  UNL1        0.1775
      3 C          65.1828   87.4686   14.7205 C.2     1  UNL1        0.2452
      4 O          65.6098   86.3471   15.6205 O.2     1  UNL1       -0.2732
      5 N          63.9943   87.2977   13.8214 N.am    1  UNL1       -0.2541
      6 C          63.2329   86.0053   13.8223 C.3     1  UNL1        0.1577
      7 C          62.0445   85.8344   12.9232 C.2     1  UNL1        0.2445
      8 O          61.2830   84.5421   12.9240 O.2     1  UNL1       -0.2731
      9 N          61.6174   86.9560   12.0232 N.am    1  UNL1       -0.2705
     10 C          62.3789   88.2483   12.0223 C.3     1  UNL1        0.1359
     11 C          63.5674   88.4192   12.9215 C.3     1  UNL1        0.1908
     12 N          64.3288   89.7115   12.9206 N.am    1  UNL1       -0.1863
     13 C          63.9017   90.8331   12.0206 C.2     1  UNL1        0.3191
     14 O          62.7133   90.6622   11.1215 O.2     1  UNL1       -0.2512
     15 N          64.6632   92.1254   12.0198 N.am    1  UNL1       -0.2836
     16 H          65.4432   92.2376   12.6099 H       1  UNL1        0.1513
     17 C          66.2787   91.1748   13.8188 C.3     1  UNL1        0.1188
     18 C          66.9242   92.6714   15.8420 C.2     1  UNL1       -0.0034
     19 C          67.2078   91.4986   14.9509 C.2     1  UNL1       -0.0071
     20 C          63.6599   84.8839   14.7222 C.3     1  UNL1        0.0556
     21 C          63.3748   83.4626   14.3365 C.ar    1  UNL1       -0.0198
     22 C          62.1753   82.7591   14.8988 C.ar    1  UNL1       -0.0011
     23 C          61.8901   81.3379   14.5131 C.ar    1  UNL1        0.0363
     24 C          62.8045   80.6202   13.5650 C.ar    1  UNL1        0.1337
     25 O          62.5193   79.1989   13.1793 O.3     1  UNL1       -0.5055
     26 C          64.0040   81.3237   13.0026 C.ar    1  UNL1        0.0363
     27 C          64.2892   82.7449   13.3884 C.ar    1  UNL1       -0.0011
     28 H          61.7701   78.7595   13.5306 H       1  UNL1        0.2922
     29 C          60.4290   86.7851   11.1241 C.3     1  UNL1        0.1217
     30 C          60.5596   87.0401    9.6517 C.ar    1  UNL1        0.0135
     31 C          61.0739   85.9604    8.7463 C.ar    1  UNL1       -0.0012
     32 C          61.2045   86.2154    7.2739 C.ar    1  UNL1       -0.0002
     33 C          60.8208   87.5500    6.7070 C.ar    1  UNL1        0.0015
     34 C          60.3065   88.6297    7.6124 C.ar    1  UNL1        0.0170
     35 C          59.8538   90.0342    7.3433 C.ar    1  UNL1        0.0201
     36 C          59.4435   90.6472    8.6493 C.ar    1  UNL1        0.0760
     37 N          59.6425   89.6217    9.7256 N.ar    1  UNL1       -0.3242
     38 C          59.3581   89.8099   11.1863 C.3     1  UNL1        0.1305
     39 C          60.1759   88.3747    9.0848 C.ar    1  UNL1        0.0575
     40 C          59.8179   90.7075    6.0033 C.ar    1  UNL1        0.0208
     41 C          61.0815   90.8705    5.2117 C.ar    1  UNL1        0.0045
     42 C          61.0455   91.5438    3.8718 C.ar    1  UNL1        0.0345
     43 C          59.7458   92.0540    3.3234 C.ar    1  UNL1        0.1353
     44 N          58.4822   91.8909    4.1150 N.ar    1  UNL1       -0.2290
     45 C          58.5182   91.2177    5.4549 C.ar    1  UNL1        0.1003
     46 N          59.7099   92.7272    1.9835 N.am    1  UNL1       -0.2535
     47 C          60.9179   92.6942    1.0948 C.2     1  UNL1        0.3088
     48 O          62.1618   91.9880    1.5461 O.2     1  UNL1       -0.2522
     49 N          60.8818   93.3675   -0.2451 N.am    1  UNL1       -0.2610
     50 C          62.0898   93.3344   -1.1337 C.3     1  UNL1        0.1141
     51 C          62.0539   94.0077   -2.4737 C.3     1  UNL1        0.1170
     52 N          60.8099   94.7139   -2.9250 N.3     1  UNL1       -0.1559
     53 C          59.6019   94.7470   -2.0364 C.3     1  UNL1        0.1170
     54 C          59.6378   94.0737   -0.6964 C.3     1  UNL1        0.1141
     55 H          58.8934   93.1907    1.6873 H       1  UNL1        0.1578
     56 S          60.7738   95.3872   -4.2649 S.O2    1  UNL1        0.0458
     57 C          60.7377   96.0606   -5.6048 C.3     1  UNL1        0.1960
     58 O          61.8660   94.4807   -4.7499 O.2     1  UNL1       -0.1572
     59 O          59.6816   96.2938   -3.7799 O.2     1  UNL1       -0.1572
     60 C          64.2362   93.2469   11.1198 C.3     1  UNL1        0.1177
     61 C          65.2678   94.0850   10.4246 C.ar    1  UNL1       -0.0025
     62 C          65.0378   95.5553   10.2376 C.ar    1  UNL1       -0.0026
     63 C          66.0695   96.3934    9.5424 C.ar    1  UNL1       -0.0003
     64 C          67.3312   95.7611    9.0342 C.ar    1  UNL1       -0.0000
     65 C          67.5612   94.2906    9.2211 C.ar    1  UNL1       -0.0003
     66 C          66.5295   93.4525    9.9164 C.ar    1  UNL1       -0.0026
@<TRIPOS>BOND
     1    18    19    2
     2    19    17    1
     3    17     1    1
     4     1     2    1
     5     2     3    1
     6     3     4    2
     7     3     5   am
     8     5     6    1
     9     6    20    1
    10    20    21    1
    11    21    22   ar
    12    22    23   ar
    13    23    24   ar
    14    24    25    1
    15    24    26   ar
    16    26    27   ar
    17     6     7    1
    18     7     8    2
    19     7     9   am
    20     9    29    1
    21    29    30    1
    22    30    31   ar
    23    31    32   ar
    24    32    33   ar
    25    33    34   ar
    26    34    35   ar
    27    35    40    1
    28    40    41   ar
    29    41    42   ar
    30    42    43   ar
    31    43    46    1
    32    46    47   am
    33    47    48    2
    34    47    49   am
    35    49    50    1
    36    50    51    1
    37    51    52    1
    38    52    56    1
    39    56    57    1
    40    56    58    2
    41    56    59    2
    42    52    53    1
    43    53    54    1
    44    43    44   ar
    45    44    45   ar
    46    35    36   ar
    47    36    37   ar
    48    37    38    1
    49    37    39   ar
    50     9    10    1
    51    10    11    1
    52    11    12    1
    53    12    13   am
    54    13    14    2
    55    13    15   am
    56    15    60    1
    57    60    61    1
    58    61    62   ar
    59    62    63   ar
    60    63    64   ar
    61    64    65   ar
    62    65    66   ar
    63    12     1    1
    64    66    61   ar
    65    11     5    1
    66    27    21   ar
    67    39    30   ar
    68    39    34   ar
    69    45    40   ar
    70    54    49    1
    71    25    28    1
    72    46    55    1
    73    15    16    1
