@<TRIPOS>MOLECULE
*****
 30 33 0 0 0
SMALL
GASTEIGER

@<TRIPOS>ATOM
      1 C          63.6061   86.2712   15.7143 C.ar    1  UNL1        0.2172
      2 N          63.0190   87.0290   16.8680 N.ar    1  UNL1       -0.2126
      3 C          63.1004   88.5264   16.9009 C.ar    1  UNL1        0.0994
      4 C          63.7689   89.2660   15.7801 C.ar    1  UNL1        0.0207
      5 C          64.3561   88.5081   14.6264 C.ar    1  UNL1        0.0994
      6 N          64.2746   87.0107   14.5936 N.ar    1  UNL1       -0.2126
      7 N          63.5247   84.7738   15.6814 N.pl3   1  UNL1       -0.2989
      8 H          64.2585   84.2326   16.0529 H       1  UNL1        0.1500
      9 C          62.3253   84.1007   15.0825 C.3     1  UNL1        0.1212
     10 C          62.9239   83.5528   12.6144 C.ar    1  UNL1        0.2225
     11 N          63.0986   82.5510   11.5118 N.ar    1  UNL1       -0.2080
     12 C          62.8495   81.0953   11.7746 C.ar    1  UNL1        0.1316
     13 C          62.4257   80.6415   13.1400 C.ar    1  UNL1        0.1592
     14 F          62.1766   79.1858   13.4028 F       1  UNL1       -0.2025
     15 C          62.2510   81.6433   14.2427 C.ar    1  UNL1        0.0333
     16 C          62.5001   83.0990   13.9799 C.ar    1  UNL1        0.0529
     17 C          62.1864   85.8056   11.5511 C.3     1  UNL1        0.2542
     18 O          63.1730   85.0085   12.3516 O.3     1  UNL1       -0.4563
     19 C          63.8503   90.7635   15.8130 C.3     1  UNL1        0.0575
     20 C          64.9041   91.4750   15.0172 C.ar    1  UNL1        0.0044
     21 C          66.1587   92.0882   15.5648 C.ar    1  UNL1        0.0966
     22 N          66.9182   92.6903   14.4200 N.ar    1  UNL1       -0.2273
     23 C          66.1330   92.4493   13.1649 C.ar    1  UNL1        0.1402
     24 N          66.3907   92.8167   11.7337 N.ar    1  UNL1       -0.3377
     25 C          65.4036   92.4331   10.6715 C.ar    1  UNL1        0.0691
     26 C          64.1588   91.6819   11.0405 C.ar    1  UNL1       -0.0047
     27 C          63.1716   91.2982    9.9782 C.3     1  UNL1        0.0326
     28 C          63.9011   91.3145   12.4718 C.ar    1  UNL1       -0.0001
     29 C          64.8882   91.6982   13.5340 C.ar    1  UNL1        0.0315
     30 H          67.2078   93.3097   11.4914 H       1  UNL1        0.1674
@<TRIPOS>BOND
     1    17    18    1
     2    18    10    1
     3    10    11   ar
     4    11    12   ar
     5    12    13   ar
     6    13    14    1
     7    13    15   ar
     8    15    16   ar
     9    16     9    1
    10     9     7    1
    11     7     1    1
    12     1     2   ar
    13     2     3   ar
    14     3     4   ar
    15     4    19    1
    16    19    20    1
    17    20    21   ar
    18    21    22   ar
    19    22    23   ar
    20    23    24   ar
    21    24    25   ar
    22    25    26   ar
    23    26    27    1
    24    26    28   ar
    25    28    29   ar
    26     4     5   ar
    27     5     6   ar
    28    16    10   ar
    29     6     1   ar
    30    29    20   ar
    31    29    23    1
    32     7     8    1
    33    24    30    1
@<TRIPOS>MOLECULE
*****
 30 33 0 0 0
SMALL
GASTEIGER

@<TRIPOS>ATOM
      1 C          63.5912   86.1657   15.6353 C.ar    1  UNL1        0.2172
      2 N          63.0236   86.9035   16.8116 N.ar    1  UNL1       -0.2126
      3 C          63.1066   88.4000   16.8693 C.ar    1  UNL1        0.0994
      4 C          63.7571   89.1589   15.7508 C.ar    1  UNL1        0.0207
      5 C          64.3247   88.4211   14.5746 C.ar    1  UNL1        0.0994
      6 N          64.2417   86.9246   14.5168 N.ar    1  UNL1       -0.2126
      7 N          63.5083   84.6692   15.5775 N.pl3   1  UNL1       -0.2989
      8 H          64.1668   84.1206   16.0620 H       1  UNL1        0.1500
      9 C          62.4221   84.0083   14.7816 C.3     1  UNL1        0.1212
     10 C          62.3005   81.8090   13.4037 C.ar    1  UNL1        0.2225
     11 N          62.6440   81.0286   12.1696 N.ar    1  UNL1       -0.2080
     12 C          63.4524   81.6671   11.0793 C.ar    1  UNL1        0.1316
     13 C          63.9174   83.0859   11.2231 C.ar    1  UNL1        0.1592
     14 F          64.7259   83.7243   10.1327 F       1  UNL1       -0.2025
     15 C          63.5740   83.8663   12.4572 C.ar    1  UNL1        0.0333
     16 C          62.7655   83.2278   13.5475 C.ar    1  UNL1        0.0529
     17 C          60.1688   80.5401   14.1756 C.3     1  UNL1        0.2542
     18 O          61.4920   81.1706   14.4940 O.3     1  UNL1       -0.4563
     19 C          63.8400   90.6555   15.8086 C.3     1  UNL1        0.0575
     20 C          64.8809   91.3805   15.0080 C.ar    1  UNL1        0.0044
     21 C          66.1376   91.9964   15.5476 C.ar    1  UNL1        0.0966
     22 N          66.8812   92.6133   14.4002 N.ar    1  UNL1       -0.2273
     23 C          66.0840   92.3787   13.1514 C.ar    1  UNL1        0.1402
     24 N          66.3241   92.7604   11.7209 N.ar    1  UNL1       -0.3377
     25 C          65.3279   92.3802   10.6659 C.ar    1  UNL1        0.0691
     26 C          64.0917   91.6182   11.0415 C.ar    1  UNL1       -0.0047
     27 C          63.0955   91.2380    9.9864 C.3     1  UNL1        0.0326
     28 C          63.8516   91.2365   12.4721 C.ar    1  UNL1       -0.0001
     29 C          64.8477   91.6167   13.5270 C.ar    1  UNL1        0.0315
     30 H          67.1355   93.2605   11.4744 H       1  UNL1        0.1674
@<TRIPOS>BOND
     1    17    18    1
     2    18    10    1
     3    10    11   ar
     4    11    12   ar
     5    12    13   ar
     6    13    14    1
     7    13    15   ar
     8    15    16   ar
     9    16     9    1
    10     9     7    1
    11     7     1    1
    12     1     2   ar
    13     2     3   ar
    14     3     4   ar
    15     4    19    1
    16    19    20    1
    17    20    21   ar
    18    21    22   ar
    19    22    23   ar
    20    23    24   ar
    21    24    25   ar
    22    25    26   ar
    23    26    27    1
    24    26    28   ar
    25    28    29   ar
    26     4     5   ar
    27     5     6   ar
    28    16    10   ar
    29     6     1   ar
    30    29    20   ar
    31    29    23    1
    32     7     8    1
    33    24    30    1
@<TRIPOS>MOLECULE
*****
 30 33 0 0 0
SMALL
GASTEIGER

@<TRIPOS>ATOM
      1 C          63.9810   91.1708   11.9834 C.ar    1  UNL1        0.2172
      2 N          63.9691   89.9516   12.8571 N.ar    1  UNL1       -0.2126
      3 C          63.1559   88.7545   12.4629 C.ar    1  UNL1        0.0994
      4 C          62.3546   88.7764   11.1950 C.ar    1  UNL1        0.0207
      5 C          62.3666   89.9956   10.3213 C.ar    1  UNL1        0.0994
      6 N          63.1798   91.1928   10.7155 N.ar    1  UNL1       -0.2126
      7 N          64.7942   92.3680   12.3775 N.pl3   1  UNL1       -0.2989
      8 H          64.3481   93.1716   12.7303 H       1  UNL1        0.1500
      9 C          66.2871   92.3410   12.2342 C.3     1  UNL1        0.1212
     10 C          66.7480   94.4300   10.7598 C.ar    1  UNL1        0.2225
     11 N          67.3979   95.0568    9.5620 N.ar    1  UNL1       -0.2080
     12 C          68.2369   94.2215    8.6409 C.ar    1  UNL1        0.1316
     13 C          68.4260   92.7594    8.9176 C.ar    1  UNL1        0.1592
     14 F          69.2650   91.9242    7.9964 F       1  UNL1       -0.2025
     15 C          67.7760   92.1326   10.1153 C.ar    1  UNL1        0.0333
     16 C          66.9370   92.9679   11.0364 C.ar    1  UNL1        0.0529
     17 C          65.9114   96.7594   11.5496 C.3     1  UNL1        0.2542
     18 O          65.9090   95.2652   11.6809 O.3     1  UNL1       -0.4563
     19 C          61.5414   87.5791   10.8009 C.3     1  UNL1        0.0575
     20 C          62.2071   86.3993   10.1567 C.ar    1  UNL1        0.0044
     21 C          62.3934   86.1878    8.6834 C.ar    1  UNL1        0.0966
     22 N          63.1048   84.8817    8.4890 N.ar    1  UNL1       -0.2273
     23 C          63.3583   84.2860    9.8421 C.ar    1  UNL1        0.1402
     24 N          64.0227   83.0107   10.2689 N.ar    1  UNL1       -0.3377
     25 C          64.1322   82.6733   11.7263 C.ar    1  UNL1        0.0691
     26 C          63.5774   83.6113   12.7570 C.ar    1  UNL1       -0.0047
     27 C          63.6869   83.2739   14.2145 C.3     1  UNL1        0.0326
     28 C          62.9130   84.8866   12.3303 C.ar    1  UNL1       -0.0001
     29 C          62.8035   85.2240   10.8729 C.ar    1  UNL1        0.0315
     30 H          64.3868   82.3950    9.5924 H       1  UNL1        0.1674
@<TRIPOS>BOND
     1    17    18    1
     2    18    10    1
     3    10    11   ar
     4    11    12   ar
     5    12    13   ar
     6    13    14    1
     7    13    15   ar
     8    15    16   ar
     9    16     9    1
    10     9     7    1
    11     7     1    1
    12     1     2   ar
    13     2     3   ar
    14     3     4   ar
    15     4    19    1
    16    19    20    1
    17    20    21   ar
    18    21    22   ar
    19    22    23   ar
    20    23    24   ar
    21    24    25   ar
    22    25    26   ar
    23    26    27    1
    24    26    28   ar
    25    28    29   ar
    26     4     5   ar
    27     5     6   ar
    28    16    10   ar
    29     6     1   ar
    30    29    20   ar
    31    29    23    1
    32     7     8    1
    33    24    30    1
@<TRIPOS>MOLECULE
*****
 30 33 0 0 0
SMALL
GASTEIGER

@<TRIPOS>ATOM
      1 C          62.3381   87.3477   11.5512 C.ar    1  UNL1        0.2172
      2 N          63.1042   88.0279   12.6468 N.ar    1  UNL1       -0.2126
      3 C          63.5309   89.4571   12.4879 C.ar    1  UNL1        0.0994
      4 C          63.1915   90.2061   11.2334 C.ar    1  UNL1        0.0207
      5 C          62.4254   89.5259   10.1378 C.ar    1  UNL1        0.0994
      6 N          61.9987   88.0967   10.2967 N.ar    1  UNL1       -0.2126
      7 N          61.9114   85.9185   11.7100 N.pl3   1  UNL1       -0.2989
      8 H          60.9745   85.7055   11.9249 H       1  UNL1        0.1500
      9 C          62.9120   84.8137   11.5416 C.3     1  UNL1        0.1212
     10 C          62.7213   83.6738   13.8684 C.ar    1  UNL1        0.2225
     11 N          62.6136   82.4308   14.7011 N.ar    1  UNL1       -0.2080
     12 C          62.5888   81.0848   14.0395 C.ar    1  UNL1        0.1316
     13 C          62.6718   80.9818   12.5454 C.ar    1  UNL1        0.1592
     14 F          62.6470   79.6357   11.8840 F       1  UNL1       -0.2025
     15 C          62.7795   82.2248   11.7128 C.ar    1  UNL1        0.0333
     16 C          62.8043   83.5708   12.3743 C.ar    1  UNL1        0.0529
     17 C          64.0179   85.5344   15.1361 C.3     1  UNL1        0.2542
     18 O          62.7461   85.0199   14.5299 O.3     1  UNL1       -0.4563
     19 C          63.6182   91.6354   11.0745 C.3     1  UNL1        0.0575
     20 C          65.0116   92.0479   11.4465 C.ar    1  UNL1        0.0044
     21 C          66.1256   92.3539   10.4898 C.ar    1  UNL1        0.0966
     22 N          67.3381   92.7219   11.2926 N.ar    1  UNL1       -0.2273
     23 C          66.9734   92.6433   12.7455 C.ar    1  UNL1        0.1402
     24 N          67.7649   92.8972   13.9941 N.ar    1  UNL1       -0.3377
     25 C          67.1185   92.7346   15.3378 C.ar    1  UNL1        0.0691
     26 C          65.6806   92.3180   15.4330 C.ar    1  UNL1       -0.0047
     27 C          65.0343   92.1553   16.7768 C.3     1  UNL1        0.0326
     28 C          64.8892   92.0641   14.1844 C.ar    1  UNL1       -0.0001
     29 C          65.5356   92.2267   12.8406 C.ar    1  UNL1        0.0315
     30 H          68.7086   93.1706   13.9317 H       1  UNL1        0.1674
@<TRIPOS>BOND
     1    17    18    1
     2    18    10    1
     3    10    11   ar
     4    11    12   ar
     5    12    13   ar
     6    13    14    1
     7    13    15   ar
     8    15    16   ar
     9    16     9    1
    10     9     7    1
    11     7     1    1
    12     1     2   ar
    13     2     3   ar
    14     3     4   ar
    15     4    19    1
    16    19    20    1
    17    20    21   ar
    18    21    22   ar
    19    22    23   ar
    20    23    24   ar
    21    24    25   ar
    22    25    26   ar
    23    26    27    1
    24    26    28   ar
    25    28    29   ar
    26     4     5   ar
    27     5     6   ar
    28    16    10   ar
    29     6     1   ar
    30    29    20   ar
    31    29    23    1
    32     7     8    1
    33    24    30    1
@<TRIPOS>MOLECULE
*****
 30 33 0 0 0
SMALL
GASTEIGER

@<TRIPOS>ATOM
      1 C          63.8414   85.5697   15.6830 C.ar    1  UNL1        0.2172
      2 N          64.4527   86.3212   14.5377 N.ar    1  UNL1       -0.2126
      3 C          64.3665   87.8180   14.4916 C.ar    1  UNL1        0.0994
      4 C          63.6692   88.5633   15.5907 C.ar    1  UNL1        0.0207
      5 C          63.0579   87.8119   16.7361 C.ar    1  UNL1        0.0994
      6 N          63.1441   86.3151   16.7821 N.ar    1  UNL1       -0.2126
      7 N          63.9275   84.0729   15.7292 N.pl3   1  UNL1       -0.2989
      8 H          64.6917   83.6373   16.1713 H       1  UNL1        0.1500
      9 C          62.8495   83.2398   15.1016 C.3     1  UNL1        0.1212
     10 C          62.4058   81.3581   13.3661 C.ar    1  UNL1        0.2225
     11 N          62.6057   80.7811   11.9960 N.ar    1  UNL1       -0.2080
     12 C          63.4492   81.5087   10.9915 C.ar    1  UNL1        0.1316
     13 C          64.0928   82.8134   11.3570 C.ar    1  UNL1        0.1592
     14 F          64.9363   83.5410   10.3525 F       1  UNL1       -0.2025
     15 C          63.8928   83.3904   12.7271 C.ar    1  UNL1        0.0333
     16 C          63.0493   82.6628   13.7316 C.ar    1  UNL1        0.0529
     17 C          60.0807   80.5181   14.1651 C.3     1  UNL1        0.2542
     18 O          61.5622   80.6304   14.3706 O.3     1  UNL1       -0.4563
     19 C          63.5830   90.0602   15.5446 C.3     1  UNL1        0.0575
     20 C          64.1820   90.8107   14.3922 C.ar    1  UNL1        0.0044
     21 C          63.5461   91.0192   13.0498 C.ar    1  UNL1        0.0966
     22 N          64.4932   91.8219   12.2079 N.ar    1  UNL1       -0.2273
     23 C          65.7144   92.1094   13.0300 C.ar    1  UNL1        0.1402
     24 N          66.9767   92.8596   12.7238 N.ar    1  UNL1       -0.3377
     25 C          68.0467   92.9848   13.7675 C.ar    1  UNL1        0.0691
     26 C          67.8544   92.3599   15.1175 C.ar    1  UNL1       -0.0047
     27 C          68.9245   92.4851   16.1612 C.3     1  UNL1        0.0326
     28 C          66.5921   91.6097   15.4237 C.ar    1  UNL1       -0.0001
     29 C          65.5221   91.4845   14.3800 C.ar    1  UNL1        0.0315
     30 H          67.1029   93.2697   11.8377 H       1  UNL1        0.1674
@<TRIPOS>BOND
     1    17    18    1
     2    18    10    1
     3    10    11   ar
     4    11    12   ar
     5    12    13   ar
     6    13    14    1
     7    13    15   ar
     8    15    16   ar
     9    16     9    1
    10     9     7    1
    11     7     1    1
    12     1     2   ar
    13     2     3   ar
    14     3     4   ar
    15     4    19    1
    16    19    20    1
    17    20    21   ar
    18    21    22   ar
    19    22    23   ar
    20    23    24   ar
    21    24    25   ar
    22    25    26   ar
    23    26    27    1
    24    26    28   ar
    25    28    29   ar
    26     4     5   ar
    27     5     6   ar
    28    16    10   ar
    29     6     1   ar
    30    29    20   ar
    31    29    23    1
    32     7     8    1
    33    24    30    1
@<TRIPOS>MOLECULE
*****
 30 33 0 0 0
SMALL
GASTEIGER

@<TRIPOS>ATOM
      1 C          63.5452   86.4621   15.1312 C.ar    1  UNL1        0.2172
      2 N          64.1675   87.3250   14.0738 N.ar    1  UNL1       -0.2126
      3 C          64.3307   88.7976   14.3079 C.ar    1  UNL1        0.0994
      4 C          63.8716   89.4072   15.5992 C.ar    1  UNL1        0.0207
      5 C          63.2493   88.5442   16.6566 C.ar    1  UNL1        0.0994
      6 N          63.0862   87.0717   16.4225 N.ar    1  UNL1       -0.2126
      7 N          63.3820   84.9894   14.8972 N.pl3   1  UNL1       -0.2989
      8 H          63.9405   84.3475   15.3924 H       1  UNL1        0.1500
      9 C          62.3678   84.4949   13.9088 C.3     1  UNL1        0.1212
     10 C          62.4032   85.3979   11.4730 C.ar    1  UNL1        0.2225
     11 N          62.7808   85.2308   10.0310 N.ar    1  UNL1       -0.2080
     12 C          63.5006   83.9934    9.5828 C.ar    1  UNL1        0.1316
     13 C          63.8427   82.9232   10.5765 C.ar    1  UNL1        0.1592
     14 F          64.5625   81.6858   10.1282 F       1  UNL1       -0.2025
     15 C          63.4651   83.0904   12.0186 C.ar    1  UNL1        0.0333
     16 C          62.7454   84.3278   12.4668 C.ar    1  UNL1        0.0529
     17 C          61.8669   87.9223   11.1730 C.3     1  UNL1        0.2542
     18 O          61.6835   86.6353   11.9212 O.3     1  UNL1       -0.4563
     19 C          64.0349   90.8799   15.8333 C.3     1  UNL1        0.0575
     20 C          65.0830   91.6470   15.0828 C.ar    1  UNL1        0.0044
     21 C          66.2974   92.2948   15.6789 C.ar    1  UNL1        0.0966
     22 N          67.0656   92.9490   14.5689 N.ar    1  UNL1       -0.2273
     23 C          66.3259   92.7055   13.2869 C.ar    1  UNL1        0.1402
     24 N          66.6098   93.1125   11.8714 N.ar    1  UNL1       -0.3377
     25 C          65.6684   92.7147   10.7735 C.ar    1  UNL1        0.0691
     26 C          64.4430   91.9100   11.0911 C.ar    1  UNL1       -0.0047
     27 C          63.5015   91.5123    9.9931 C.3     1  UNL1        0.0326
     28 C          64.1591   91.5030   12.5066 C.ar    1  UNL1       -0.0001
     29 C          65.1005   91.9007   13.6045 C.ar    1  UNL1        0.0315
     30 H          67.4141   93.6406   11.6630 H       1  UNL1        0.1674
@<TRIPOS>BOND
     1    17    18    1
     2    18    10    1
     3    10    11   ar
     4    11    12   ar
     5    12    13   ar
     6    13    14    1
     7    13    15   ar
     8    15    16   ar
     9    16     9    1
    10     9     7    1
    11     7     1    1
    12     1     2   ar
    13     2     3   ar
    14     3     4   ar
    15     4    19    1
    16    19    20    1
    17    20    21   ar
    18    21    22   ar
    19    22    23   ar
    20    23    24   ar
    21    24    25   ar
    22    25    26   ar
    23    26    27    1
    24    26    28   ar
    25    28    29   ar
    26     4     5   ar
    27     5     6   ar
    28    16    10   ar
    29     6     1   ar
    30    29    20   ar
    31    29    23    1
    32     7     8    1
    33    24    30    1
@<TRIPOS>MOLECULE
*****
 30 33 0 0 0
SMALL
GASTEIGER

@<TRIPOS>ATOM
      1 C          63.5486   85.8964   15.7722 C.ar    1  UNL1        0.2172
      2 N          64.2558   86.5704   14.6339 N.ar    1  UNL1       -0.2126
      3 C          64.3133   88.0678   14.5680 C.ar    1  UNL1        0.0994
      4 C          63.6636   88.8913   15.6403 C.ar    1  UNL1        0.0207
      5 C          62.9564   88.2173   16.7786 C.ar    1  UNL1        0.0994
      6 N          62.8989   86.7199   16.8445 N.ar    1  UNL1       -0.2126
      7 N          63.4911   84.3990   15.8382 N.pl3   1  UNL1       -0.2989
      8 H          64.2363   83.8949   16.2380 H       1  UNL1        0.1500
      9 C          62.2983   83.6695   15.2950 C.3     1  UNL1        0.1212
     10 C          62.8099   83.3095   12.7733 C.ar    1  UNL1        0.2225
     11 N          62.9639   82.3912   11.5973 N.ar    1  UNL1       -0.2080
     12 C          62.7602   80.9148   11.7668 C.ar    1  UNL1        0.1316
     13 C          62.4025   80.3567   13.1124 C.ar    1  UNL1        0.1592
     14 F          62.1988   78.8802   13.2818 F       1  UNL1       -0.2025
     15 C          62.2485   81.2749   14.2884 C.ar    1  UNL1        0.0333
     16 C          62.4522   82.7513   14.1189 C.ar    1  UNL1        0.0529
     17 C          62.1505   85.5575   11.6502 C.3     1  UNL1        0.2542
     18 O          63.0136   84.7859   12.6038 O.3     1  UNL1       -0.4563
     19 C          63.7211   90.3888   15.5744 C.3     1  UNL1        0.0575
     20 C          64.4141   91.0629   14.4275 C.ar    1  UNL1        0.0044
     21 C          63.8392   91.2909   13.0610 C.ar    1  UNL1        0.0966
     22 N          64.8735   91.9963   12.2348 N.ar    1  UNL1       -0.2273
     23 C          66.0877   92.2043   13.0907 C.ar    1  UNL1        0.1402
     24 N          67.4151   92.8444   12.8111 N.ar    1  UNL1       -0.3377
     25 C          68.4585   92.9076   13.8868 C.ar    1  UNL1        0.0691
     26 C          68.1746   92.3307   15.2420 C.ar    1  UNL1       -0.0047
     27 C          69.2182   92.3940   16.3177 C.3     1  UNL1        0.0326
     28 C          66.8472   91.6906   15.5215 C.ar    1  UNL1       -0.0001
     29 C          65.8037   91.6274   14.4459 C.ar    1  UNL1        0.0315
     30 H          67.6014   93.2230   11.9217 H       1  UNL1        0.1674
@<TRIPOS>BOND
     1    17    18    1
     2    18    10    1
     3    10    11   ar
     4    11    12   ar
     5    12    13   ar
     6    13    14    1
     7    13    15   ar
     8    15    16   ar
     9    16     9    1
    10     9     7    1
    11     7     1    1
    12     1     2   ar
    13     2     3   ar
    14     3     4   ar
    15     4    19    1
    16    19    20    1
    17    20    21   ar
    18    21    22   ar
    19    22    23   ar
    20    23    24   ar
    21    24    25   ar
    22    25    26   ar
    23    26    27    1
    24    26    28   ar
    25    28    29   ar
    26     4     5   ar
    27     5     6   ar
    28    16    10   ar
    29     6     1   ar
    30    29    20   ar
    31    29    23    1
    32     7     8    1
    33    24    30    1
@<TRIPOS>MOLECULE
*****
 30 33 0 0 0
SMALL
GASTEIGER

@<TRIPOS>ATOM
      1 C          64.1225   83.7736   11.8936 C.ar    1  UNL1        0.2172
      2 N          64.5925   83.3682   10.5281 N.ar    1  UNL1       -0.2126
      3 C          63.9219   83.9262    9.3079 C.ar    1  UNL1        0.0994
      4 C          62.7815   84.8896    9.4532 C.ar    1  UNL1        0.0207
      5 C          62.3115   85.2951   10.8188 C.ar    1  UNL1        0.0994
      6 N          62.9821   84.7371   12.0389 N.ar    1  UNL1       -0.2126
      7 N          64.7931   83.2157   13.1139 N.pl3   1  UNL1       -0.2989
      8 H          64.9408   82.2456   13.1942 H       1  UNL1        0.1500
      9 C          65.2385   84.1356   14.2118 C.3     1  UNL1        0.1212
     10 C          63.0744   83.9395   15.6360 C.ar    1  UNL1        0.2225
     11 N          62.0613   84.5600   16.5518 N.ar    1  UNL1       -0.2080
     12 C          62.1994   85.9970   16.9593 C.ar    1  UNL1        0.1316
     13 C          63.3504   86.8135   16.4510 C.ar    1  UNL1        0.1592
     14 F          63.4884   88.2505   16.8585 F       1  UNL1       -0.2025
     15 C          64.3635   86.1930   15.5351 C.ar    1  UNL1        0.0333
     16 C          64.2254   84.7560   15.1276 C.ar    1  UNL1        0.0529
     17 C          61.7961   82.0779   14.3513 C.3     1  UNL1        0.2542
     18 O          62.9363   82.5025   15.2285 O.3     1  UNL1       -0.4563
     19 C          62.1109   85.4477    8.2329 C.3     1  UNL1        0.0575
     20 C          61.0500   86.4986    8.3745 C.ar    1  UNL1        0.0044
     21 C          59.6625   86.4326    7.8084 C.ar    1  UNL1        0.0966
     22 N          58.9454   87.6933    8.1911 N.ar    1  UNL1       -0.2273
     23 C          59.8897   88.5384    8.9937 C.ar    1  UNL1        0.1402
     24 N          59.7331   89.8848    9.6360 N.ar    1  UNL1       -0.3377
     25 C          60.8774   90.4929   10.3915 C.ar    1  UNL1        0.0691
     26 C          62.1781   89.7545   10.5049 C.ar    1  UNL1       -0.0047
     27 C          63.3224   90.3626   11.2605 C.3     1  UNL1        0.0326
     28 C          62.3346   88.4081    9.8626 C.ar    1  UNL1       -0.0001
     29 C          61.1904   87.8000    9.1070 C.ar    1  UNL1        0.0315
     30 H          58.8794   90.3694    9.5616 H       1  UNL1        0.1674
@<TRIPOS>BOND
     1    17    18    1
     2    18    10    1
     3    10    11   ar
     4    11    12   ar
     5    12    13   ar
     6    13    14    1
     7    13    15   ar
     8    15    16   ar
     9    16     9    1
    10     9     7    1
    11     7     1    1
    12     1     2   ar
    13     2     3   ar
    14     3     4   ar
    15     4    19    1
    16    19    20    1
    17    20    21   ar
    18    21    22   ar
    19    22    23   ar
    20    23    24   ar
    21    24    25   ar
    22    25    26   ar
    23    26    27    1
    24    26    28   ar
    25    28    29   ar
    26     4     5   ar
    27     5     6   ar
    28    16    10   ar
    29     6     1   ar
    30    29    20   ar
    31    29    23    1
    32     7     8    1
    33    24    30    1
@<TRIPOS>MOLECULE
*****
 30 33 0 0 0
SMALL
GASTEIGER

@<TRIPOS>ATOM
      1 C          63.1363   89.9798   12.2564 C.ar    1  UNL1        0.2172
      2 N          63.4609   88.6782   12.9275 N.ar    1  UNL1       -0.2126
      3 C          63.0551   87.3833   12.2884 C.ar    1  UNL1        0.0994
      4 C          62.3247   87.3899   10.9783 C.ar    1  UNL1        0.0207
      5 C          62.0001   88.6916   10.3072 C.ar    1  UNL1        0.0994
      6 N          62.4060   89.9865   10.9463 N.ar    1  UNL1       -0.2126
      7 N          63.5421   91.2748   12.8954 N.pl3   1  UNL1       -0.2989
      8 H          62.8898   91.7881   13.4248 H       1  UNL1        0.1500
      9 C          64.9418   91.7877   12.7280 C.3     1  UNL1        0.1212
     10 C          65.1630   92.0349   15.3048 C.ar    1  UNL1        0.2225
     11 N          65.9893   92.3678   16.5116 N.ar    1  UNL1       -0.2080
     12 C          67.4204   92.7865   16.3485 C.ar    1  UNL1        0.1316
     13 C          68.0253   92.8722   14.9786 C.ar    1  UNL1        0.1592
     14 F          69.4565   93.2908   14.8156 F       1  UNL1       -0.2025
     15 C          67.1991   92.5392   13.7717 C.ar    1  UNL1        0.0333
     16 C          65.7679   92.1206   13.9349 C.ar    1  UNL1        0.0529
     17 C          63.3944   90.3962   16.2724 C.3     1  UNL1        0.2542
     18 O          63.7319   91.6163   15.4679 O.3     1  UNL1       -0.4563
     19 C          61.9189   86.0949   10.3392 C.3     1  UNL1        0.0575
     20 C          62.7810   84.8776   10.4980 C.ar    1  UNL1        0.0044
     21 C          63.5513   84.1944    9.4073 C.ar    1  UNL1        0.0966
     22 N          64.2704   83.0245   10.0106 N.ar    1  UNL1       -0.2273
     23 C          63.9445   82.9846   11.4743 C.ar    1  UNL1        0.1402
     24 N          64.3671   82.0534   12.5716 N.ar    1  UNL1       -0.3377
     25 C          63.8691   82.2675   13.9702 C.ar    1  UNL1        0.0691
     26 C          62.9485   83.4129   14.2714 C.ar    1  UNL1       -0.0047
     27 C          62.4505   83.6270   15.6701 C.3     1  UNL1        0.0326
     28 C          62.5260   84.3441   13.1741 C.ar    1  UNL1       -0.0001
     29 C          63.0240   84.1300   11.7755 C.ar    1  UNL1        0.0315
     30 H          64.9713   81.3017   12.3739 H       1  UNL1        0.1674
@<TRIPOS>BOND
     1    17    18    1
     2    18    10    1
     3    10    11   ar
     4    11    12   ar
     5    12    13   ar
     6    13    14    1
     7    13    15   ar
     8    15    16   ar
     9    16     9    1
    10     9     7    1
    11     7     1    1
    12     1     2   ar
    13     2     3   ar
    14     3     4   ar
    15     4    19    1
    16    19    20    1
    17    20    21   ar
    18    21    22   ar
    19    22    23   ar
    20    23    24   ar
    21    24    25   ar
    22    25    26   ar
    23    26    27    1
    24    26    28   ar
    25    28    29   ar
    26     4     5   ar
    27     5     6   ar
    28    16    10   ar
    29     6     1   ar
    30    29    20   ar
    31    29    23    1
    32     7     8    1
    33    24    30    1
