@<TRIPOS>MOLECULE
*****
 39 44 0 0 0
SMALL
GASTEIGER

@<TRIPOS>ATOM
      1 C          64.3397   89.8312   13.7789 C.ar    1  UNL1        0.0251
      2 C          64.6155   88.5033   14.4198 C.ar    1  UNL1        0.0233
      3 C          63.8092   87.4642   13.6986 C.ar    1  UNL1        0.0919
      4 N          63.6799   85.9822   13.8909 N.ar    1  UNL1       -0.2249
      5 C          62.7764   85.1859   12.9966 C.ar    1  UNL1        0.1779
      6 N          62.0024   85.8716   11.9101 N.ar    1  UNL1       -0.2101
      7 C          62.1317   87.3536   11.7177 C.ar    1  UNL1        0.1410
      8 C          63.0351   88.1499   12.6120 C.ar    1  UNL1        0.0785
      9 S          63.3630   89.6128   12.6616 S.2     1  UNL1       -0.0856
     10 C          62.6471   83.7039   13.1889 C.2     1  UNL1        0.1040
     11 N          62.1405   83.1580   14.4910 N.2     1  UNL1       -0.2443
     12 C          62.0112   81.6760   14.6833 C.2     1  UNL1        0.0998
     13 C          62.3884   80.7399   13.5735 C.2     1  UNL1        0.0360
     14 C          62.8949   81.2859   12.2715 C.2     1  UNL1        0.0700
     15 N          63.3402   80.6137   11.0066 N.2     1  UNL1       -0.2477
     16 C          63.7447   81.6802   10.0325 C.2     1  UNL1        0.0947
     17 C          63.5494   83.0116   10.6954 C.2     1  UNL1        0.0062
     18 C          63.0242   82.7678   12.0792 C.3     1  UNL1        0.1069
     19 N          61.3576   88.0392   10.6311 N.pl3   1  UNL1       -0.2876
     20 C          61.0570   87.3145    9.3526 C.3     1  UNL1        0.1243
     21 C          60.2830   88.0001    8.2660 C.3     1  UNL1        0.1636
     22 O          59.8095   89.4104    8.4578 O.3     1  UNL1       -0.3501
     23 C          60.1100   90.1351    9.7363 C.3     1  UNL1        0.1636
     24 C          60.8841   89.4495   10.8230 C.3     1  UNL1        0.1243
     25 C          64.9360   91.1466   14.1842 C.3     1  UNL1        0.1058
     26 N          65.9057   94.2356   11.0588 N.3     1  UNL1       -0.2655
     27 C          65.0439   93.0589   10.7083 C.3     1  UNL1        0.0900
     28 C          64.7207   92.0293   11.7502 C.3     1  UNL1        0.0899
     29 N          65.2592   92.1762   13.1424 N.3     1  UNL1       -0.2661
     30 C          66.1211   93.3529   13.4929 C.3     1  UNL1        0.0899
     31 C          66.4443   94.3825   12.4511 C.3     1  UNL1        0.0900
     32 C          65.4491   96.2893   10.7873 C.3     1  UNL1        0.0253
     33 C          66.2290   95.2652   10.0171 C.3     1  UNL1        0.1145
     34 C          67.0088   94.2412    9.2469 C.3     1  UNL1        0.0253
     35 C          66.5522   96.2950    8.9754 C.2     1  UNL1        0.2321
     36 N          67.9403   96.8554    8.8801 N.am    1  UNL1       -0.3278
     37 O          65.4873   96.7644    8.0290 O.2     1  UNL1       -0.2740
     38 H          68.6393   96.5473    9.5012 H       1  UNL1        0.1450
     39 H          68.1525   97.5312    8.1964 H       1  UNL1        0.1450
@<TRIPOS>BOND
     1    32    33    1
     2    33    34    1
     3    33    35    1
     4    35    36   am
     5    35    37    2
     6    33    26    1
     7    26    27    1
     8    27    28    1
     9    28    29    1
    10    29    25    1
    11    25     1    1
    12     1     2   ar
    13     2     3   ar
    14     3     4   ar
    15     4     5   ar
    16     5    10    1
    17    10    11    2
    18    11    12    1
    19    12    13    2
    20    13    14    1
    21    14    15    2
    22    15    16    1
    23    16    17    2
    24    17    18    1
    25     5     6   ar
    26     6     7   ar
    27     7    19    1
    28    19    20    1
    29    20    21    1
    30    21    22    1
    31    22    23    1
    32    23    24    1
    33     7     8   ar
    34     8     9   ar
    35    29    30    1
    36    30    31    1
    37    31    26    1
    38     9     1   ar
    39     8     3   ar
    40    18    10    1
    41    24    19    1
    42    18    14    1
    43    36    38    1
    44    36    39    1
@<TRIPOS>MOLECULE
*****
 39 44 0 0 0
SMALL
GASTEIGER

@<TRIPOS>ATOM
      1 C          64.0460   88.5197   14.7327 C.ar    1  UNL1        0.0251
      2 C          65.0667   89.6185   14.7613 C.ar    1  UNL1        0.0233
      3 C          64.8442   90.4891   13.5603 C.ar    1  UNL1        0.0919
      4 N          65.5466   91.7200   13.0689 N.ar    1  UNL1       -0.2249
      5 C          65.0907   92.3902   11.8067 C.ar    1  UNL1        0.1779
      6 N          63.9325   91.8296   11.0360 N.ar    1  UNL1       -0.2101
      7 C          63.2301   90.5987   11.5273 C.ar    1  UNL1        0.1410
      8 C          63.6859   89.9284   12.7894 C.ar    1  UNL1        0.0785
      9 S          63.1926   88.7112   13.5141 S.2     1  UNL1       -0.0856
     10 C          65.7931   93.6213   11.3154 C.2     1  UNL1        0.1040
     11 N          65.3502   94.9753   11.7848 N.2     1  UNL1       -0.2443
     12 C          66.0526   96.2062   11.2934 C.2     1  UNL1        0.0998
     13 C          67.1980   96.0831   10.3327 C.2     1  UNL1        0.0360
     14 C          67.6409   94.7290    9.8633 C.2     1  UNL1        0.0700
     15 N          68.7301   94.2983    8.9262 N.2     1  UNL1       -0.2477
     16 C          68.7009   92.8012    8.8383 C.2     1  UNL1        0.0947
     17 C          67.5935   92.3067    9.7212 C.2     1  UNL1        0.0062
     18 C          66.9385   93.4981   10.3546 C.3     1  UNL1        0.1069
     19 N          62.0719   90.0380   10.7565 N.pl3   1  UNL1       -0.2876
     20 C          62.2603   88.8222    9.8982 C.3     1  UNL1        0.1243
     21 C          61.1021   88.2616    9.1274 C.3     1  UNL1        0.1636
     22 O          59.7555   88.9165    9.2148 O.3     1  UNL1       -0.3501
     23 C          59.5671   90.1322   10.0731 C.3     1  UNL1        0.1636
     24 C          60.7253   90.6929   10.8440 C.3     1  UNL1        0.1243
     25 C          63.9036   87.4220   15.7451 C.3     1  UNL1        0.1058
     26 N          63.2489   83.1814   14.3891 N.3     1  UNL1       -0.2655
     27 C          62.3853   83.7658   15.4674 C.3     1  UNL1        0.0900
     28 C          62.6036   85.1794   15.9193 C.3     1  UNL1        0.0899
     29 N          63.6854   86.0085   15.2931 N.3     1  UNL1       -0.2661
     30 C          64.5490   85.4240   14.2148 C.3     1  UNL1        0.0899
     31 C          64.3307   84.0105   13.7628 C.3     1  UNL1        0.0900
     32 C          64.4026   81.7500   13.3308 C.3     1  UNL1        0.0253
     33 C          63.0307   81.7679   13.9370 C.3     1  UNL1        0.1145
     34 C          61.6588   81.7858   14.5433 C.3     1  UNL1        0.0253
     35 C          62.8126   80.3544   13.4850 C.2     1  UNL1        0.2321
     36 N          62.6776   80.0469   12.0230 N.am    1  UNL1       -0.3278
     37 O          62.7295   79.2483   14.4948 O.2     1  UNL1       -0.2740
     38 H          62.7321   80.7728   11.3602 H       1  UNL1        0.1450
     39 H          62.5344   79.1191   11.7263 H       1  UNL1        0.1450
@<TRIPOS>BOND
     1    32    33    1
     2    33    34    1
     3    33    35    1
     4    35    36   am
     5    35    37    2
     6    33    26    1
     7    26    27    1
     8    27    28    1
     9    28    29    1
    10    29    25    1
    11    25     1    1
    12     1     2   ar
    13     2     3   ar
    14     3     4   ar
    15     4     5   ar
    16     5    10    1
    17    10    11    2
    18    11    12    1
    19    12    13    2
    20    13    14    1
    21    14    15    2
    22    15    16    1
    23    16    17    2
    24    17    18    1
    25     5     6   ar
    26     6     7   ar
    27     7    19    1
    28    19    20    1
    29    20    21    1
    30    21    22    1
    31    22    23    1
    32    23    24    1
    33     7     8   ar
    34     8     9   ar
    35    29    30    1
    36    30    31    1
    37    31    26    1
    38     9     1   ar
    39     8     3   ar
    40    18    10    1
    41    24    19    1
    42    18    14    1
    43    36    38    1
    44    36    39    1
@<TRIPOS>MOLECULE
*****
 39 44 0 0 0
SMALL
GASTEIGER

@<TRIPOS>ATOM
      1 C          59.6108   88.7976    7.9810 C.ar    1  UNL1        0.0251
      2 C          59.6953   87.3022    8.0629 C.ar    1  UNL1        0.0233
      3 C          60.7136   86.9520    9.1071 C.ar    1  UNL1        0.0919
      4 N          61.2151   85.6338    9.6177 N.ar    1  UNL1       -0.2249
      5 C          62.2616   85.5945   10.6917 C.ar    1  UNL1        0.1779
      6 N          62.8064   86.8734   11.2551 N.ar    1  UNL1       -0.2101
      7 C          62.3049   88.1916   10.7445 C.ar    1  UNL1        0.1410
      8 C          61.2585   88.2310    9.6705 C.ar    1  UNL1        0.0785
      9 S          60.5769   89.3716    8.9745 S.2     1  UNL1       -0.0856
     10 C          62.7631   84.2762   11.2023 C.2     1  UNL1        0.1040
     11 N          63.2836   83.2487   10.2415 N.2     1  UNL1       -0.2443
     12 C          63.7851   81.9304   10.7521 C.2     1  UNL1        0.0998
     13 C          63.7661   81.6397   12.2236 C.2     1  UNL1        0.0360
     14 C          63.2456   82.6673   13.1844 C.2     1  UNL1        0.0700
     15 N          63.1044   82.6645   14.6778 N.2     1  UNL1       -0.2477
     16 C          62.5156   83.9810   15.0901 C.2     1  UNL1        0.0947
     17 C          62.2929   84.7975   13.8515 C.2     1  UNL1        0.0062
     18 C          62.7441   83.9855   12.6738 C.3     1  UNL1        0.1069
     19 N          62.8498   89.4706   11.3079 N.pl3   1  UNL1       -0.2876
     20 C          63.0006   89.6324   12.7916 C.3     1  UNL1        0.1243
     21 C          63.5454   90.9112   13.3550 C.3     1  UNL1        0.1636
     22 O          63.9396   92.0284   12.4349 O.3     1  UNL1       -0.3501
     23 C          63.7889   91.8666   10.9513 C.3     1  UNL1        0.1636
     24 C          63.2440   90.5877   10.3878 C.3     1  UNL1        0.1243
     25 C          58.7171   89.5814    7.0661 C.3     1  UNL1        0.1058
     26 N          60.4945   92.0041    3.7163 N.3     1  UNL1       -0.2655
     27 C          59.0593   92.2016    4.1051 C.3     1  UNL1        0.0900
     28 C          58.4668   91.3939    5.2217 C.3     1  UNL1        0.0899
     29 N          59.3096   90.3889    5.9495 N.3     1  UNL1       -0.2661
     30 C          60.7448   90.1915    5.5607 C.3     1  UNL1        0.0899
     31 C          61.3372   90.9991    4.4441 C.3     1  UNL1        0.0900
     32 C          59.7333   93.3802    2.2926 C.3     1  UNL1        0.0253
     33 C          61.0870   92.8117    2.5997 C.3     1  UNL1        0.1145
     34 C          62.4406   92.2432    2.9068 C.3     1  UNL1        0.0253
     35 C          61.6793   93.6192    1.4831 C.2     1  UNL1        0.2321
     36 N          63.1043   93.3969    1.0707 N.am    1  UNL1       -0.3278
     37 O          60.8468   94.6492    0.7787 O.2     1  UNL1       -0.2740
     38 H          63.6508   92.7209    1.5330 H       1  UNL1        0.1450
     39 H          63.4932   93.9269    0.3378 H       1  UNL1        0.1450
@<TRIPOS>BOND
     1    32    33    1
     2    33    34    1
     3    33    35    1
     4    35    36   am
     5    35    37    2
     6    33    26    1
     7    26    27    1
     8    27    28    1
     9    28    29    1
    10    29    25    1
    11    25     1    1
    12     1     2   ar
    13     2     3   ar
    14     3     4   ar
    15     4     5   ar
    16     5    10    1
    17    10    11    2
    18    11    12    1
    19    12    13    2
    20    13    14    1
    21    14    15    2
    22    15    16    1
    23    16    17    2
    24    17    18    1
    25     5     6   ar
    26     6     7   ar
    27     7    19    1
    28    19    20    1
    29    20    21    1
    30    21    22    1
    31    22    23    1
    32    23    24    1
    33     7     8   ar
    34     8     9   ar
    35    29    30    1
    36    30    31    1
    37    31    26    1
    38     9     1   ar
    39     8     3   ar
    40    18    10    1
    41    24    19    1
    42    18    14    1
    43    36    38    1
    44    36    39    1
@<TRIPOS>MOLECULE
*****
 39 44 0 0 0
SMALL
GASTEIGER

@<TRIPOS>ATOM
      1 C          59.5718   88.7983    8.1305 C.ar    1  UNL1        0.0251
      2 C          59.5333   87.3618    8.5605 C.ar    1  UNL1        0.0233
      3 C          60.5652   87.1711    9.6323 C.ar    1  UNL1        0.0919
      4 N          60.9764   85.9670   10.4267 N.ar    1  UNL1       -0.2249
      5 C          62.0640   86.0816   11.4535 C.ar    1  UNL1        0.1779
      6 N          62.7402   87.4001   11.6858 N.ar    1  UNL1       -0.2101
      7 C          62.3289   88.6042   10.8914 C.ar    1  UNL1        0.1410
      8 C          61.2415   88.4897    9.8646 C.ar    1  UNL1        0.0785
      9 S          60.6275   89.4954    8.9364 S.2     1  UNL1       -0.0856
     10 C          62.4753   84.8775   12.2479 C.2     1  UNL1        0.1040
     11 N          62.1041   84.7727   13.6975 N.2     1  UNL1       -0.2443
     12 C          62.5153   83.5687   14.4919 C.2     1  UNL1        0.0998
     13 C          63.2978   82.4693   13.8367 C.2     1  UNL1        0.0360
     14 C          63.6690   82.5741   12.3871 C.2     1  UNL1        0.0700
     15 N          64.4296   81.6559   11.4769 N.2     1  UNL1       -0.2477
     16 C          64.4884   82.2924   10.1200 C.2     1  UNL1        0.0947
     17 C          63.7641   83.6041   10.1916 C.2     1  UNL1        0.0062
     18 C          63.2577   83.7781   11.5928 C.3     1  UNL1        0.1069
     19 N          63.0052   89.9228   11.1238 N.pl3   1  UNL1       -0.2876
     20 C          63.1743   90.8892    9.9890 C.3     1  UNL1        0.1243
     21 C          63.8505   92.2078   10.2213 C.3     1  UNL1        0.1636
     22 O          64.3577   92.5601   11.5884 O.3     1  UNL1       -0.3501
     23 C          64.1886   91.5937   12.7230 C.3     1  UNL1        0.1636
     24 C          63.5123   90.2750   12.4908 C.3     1  UNL1        0.1243
     25 C          58.7065   89.4274    7.0790 C.3     1  UNL1        0.1058
     26 N          60.5630   91.9642    3.8591 N.3     1  UNL1       -0.2655
     27 C          61.3907   90.9401    4.5777 C.3     1  UNL1        0.0900
     28 C          60.7718   90.0946    5.6510 C.3     1  UNL1        0.0899
     29 N          59.3253   90.2730    6.0057 N.3     1  UNL1       -0.2661
     30 C          58.4977   91.2970    5.2870 C.3     1  UNL1        0.0899
     31 C          59.1165   92.1426    4.2138 C.3     1  UNL1        0.0900
     32 C          62.4765   92.0702    2.9495 C.3     1  UNL1        0.0253
     33 C          61.1818   92.8098    2.7857 C.3     1  UNL1        0.1145
     34 C          59.8872   93.5493    2.6220 C.3     1  UNL1        0.0253
     35 C          61.8007   93.6553    1.7125 C.2     1  UNL1        0.2321
     36 N          62.7695   93.0459    0.7428 N.am    1  UNL1       -0.3278
     37 O          61.4509   95.1102    1.6087 O.2     1  UNL1       -0.2740
     38 H          62.9991   92.0910    0.8109 H       1  UNL1        0.1450
     39 H          63.1757   93.6009    0.0384 H       1  UNL1        0.1450
@<TRIPOS>BOND
     1    32    33    1
     2    33    34    1
     3    33    35    1
     4    35    36   am
     5    35    37    2
     6    33    26    1
     7    26    27    1
     8    27    28    1
     9    28    29    1
    10    29    25    1
    11    25     1    1
    12     1     2   ar
    13     2     3   ar
    14     3     4   ar
    15     4     5   ar
    16     5    10    1
    17    10    11    2
    18    11    12    1
    19    12    13    2
    20    13    14    1
    21    14    15    2
    22    15    16    1
    23    16    17    2
    24    17    18    1
    25     5     6   ar
    26     6     7   ar
    27     7    19    1
    28    19    20    1
    29    20    21    1
    30    21    22    1
    31    22    23    1
    32    23    24    1
    33     7     8   ar
    34     8     9   ar
    35    29    30    1
    36    30    31    1
    37    31    26    1
    38     9     1   ar
    39     8     3   ar
    40    18    10    1
    41    24    19    1
    42    18    14    1
    43    36    38    1
    44    36    39    1
@<TRIPOS>MOLECULE
*****
 39 44 0 0 0
SMALL
GASTEIGER

@<TRIPOS>ATOM
      1 C          59.9063   89.2061    8.3511 C.ar    1  UNL1        0.0251
      2 C          60.1645   90.2877    9.3579 C.ar    1  UNL1        0.0233
      3 C          61.0806   89.7338   10.4085 C.ar    1  UNL1        0.0919
      4 N          61.6741   90.3421   11.6445 N.ar    1  UNL1       -0.2249
      5 C          62.5757   89.5263   12.5232 C.ar    1  UNL1        0.1779
      6 N          62.8837   88.1026   12.1658 N.ar    1  UNL1       -0.2101
      7 C          62.2902   87.4943   10.9298 C.ar    1  UNL1        0.1410
      8 C          61.3886   88.3099   10.0511 C.ar    1  UNL1        0.0785
      9 S          60.6629   87.9838    8.7795 S.2     1  UNL1       -0.0856
     10 C          63.1693   90.1346   13.7593 C.2     1  UNL1        0.1040
     11 N          62.6972   89.6937   15.1131 N.2     1  UNL1       -0.2443
     12 C          63.2908   90.3020   16.3491 C.2     1  UNL1        0.0998
     13 C          64.3563   91.3511   16.2313 C.2     1  UNL1        0.0360
     14 C          64.8283   91.7920   14.8775 C.2     1  UNL1        0.0700
     15 N          65.8560   92.7982   14.4514 N.2     1  UNL1       -0.2477
     16 C          65.8977   92.8118   12.9521 C.2     1  UNL1        0.0947
     17 C          64.8956   91.8140   12.4515 C.2     1  UNL1        0.0062
     18 C          64.2348   91.1838   13.6415 C.3     1  UNL1        0.1069
     19 N          62.5982   86.0704   10.5724 N.pl3   1  UNL1       -0.2876
     20 C          62.6375   85.0201   11.6427 C.3     1  UNL1        0.1243
     21 C          62.9455   83.5964   11.2853 C.3     1  UNL1        0.1636
     22 O          63.2143   83.2226    9.8577 O.3     1  UNL1       -0.3501
     23 C          63.1750   84.2729    8.7874 C.3     1  UNL1        0.1636
     24 C          62.8670   85.6968    9.1447 C.3     1  UNL1        0.1243
     25 C          59.0432   89.3259    7.1302 C.3     1  UNL1        0.1058
     26 N          60.3226   91.9689    3.7203 N.3     1  UNL1       -0.2655
     27 C          58.8912   91.9633    4.1686 C.3     1  UNL1        0.0900
     28 C          58.4647   91.0823    5.3053 C.3     1  UNL1        0.0899
     29 N          59.4697   90.2069    5.9936 N.3     1  UNL1       -0.2661
     30 C          60.9011   90.2125    5.5452 C.3     1  UNL1        0.0899
     31 C          61.3275   91.0936    4.4086 C.3     1  UNL1        0.0900
     32 C          59.3116   93.1446    2.2726 C.3     1  UNL1        0.0253
     33 C          60.7491   92.8499    2.5837 C.3     1  UNL1        0.1145
     34 C          62.1866   92.5553    2.8947 C.3     1  UNL1        0.0253
     35 C          61.1755   93.7310    1.4471 C.2     1  UNL1        0.2321
     36 N          60.4412   95.0099    1.1731 N.am    1  UNL1       -0.3278
     37 O          62.3363   93.3331    0.5843 O.2     1  UNL1       -0.2740
     38 H          59.6793   95.2711    1.7393 H       1  UNL1        0.1450
     39 H          60.7210   95.5882    0.4271 H       1  UNL1        0.1450
@<TRIPOS>BOND
     1    32    33    1
     2    33    34    1
     3    33    35    1
     4    35    36   am
     5    35    37    2
     6    33    26    1
     7    26    27    1
     8    27    28    1
     9    28    29    1
    10    29    25    1
    11    25     1    1
    12     1     2   ar
    13     2     3   ar
    14     3     4   ar
    15     4     5   ar
    16     5    10    1
    17    10    11    2
    18    11    12    1
    19    12    13    2
    20    13    14    1
    21    14    15    2
    22    15    16    1
    23    16    17    2
    24    17    18    1
    25     5     6   ar
    26     6     7   ar
    27     7    19    1
    28    19    20    1
    29    20    21    1
    30    21    22    1
    31    22    23    1
    32    23    24    1
    33     7     8   ar
    34     8     9   ar
    35    29    30    1
    36    30    31    1
    37    31    26    1
    38     9     1   ar
    39     8     3   ar
    40    18    10    1
    41    24    19    1
    42    18    14    1
    43    36    38    1
    44    36    39    1
@<TRIPOS>MOLECULE
*****
 39 44 0 0 0
SMALL
GASTEIGER

@<TRIPOS>ATOM
      1 C          63.6996   85.8826   14.6313 C.ar    1  UNL1        0.0251
      2 C          64.6240   86.9128   15.2094 C.ar    1  UNL1        0.0233
      3 C          64.4934   88.1636   14.3917 C.ar    1  UNL1        0.0919
      4 N          65.1599   89.5035   14.4937 N.ar    1  UNL1       -0.2249
      5 C          64.8212   90.5862   13.5122 C.ar    1  UNL1        0.1779
      6 N          63.8162   90.3290   12.4289 N.ar    1  UNL1       -0.2101
      7 C          63.1498   88.9890   12.3269 C.ar    1  UNL1        0.1410
      8 C          63.4884   87.9063   13.3083 C.ar    1  UNL1        0.0785
      9 S          62.9978   86.4966   13.4564 S.2     1  UNL1       -0.0856
     10 C          65.4877   91.9262   13.6142 C.2     1  UNL1        0.1040
     11 N          65.8945   92.4614   14.9552 N.2     1  UNL1       -0.2443
     12 C          66.5609   93.8013   15.0571 C.2     1  UNL1        0.0998
     13 C          66.8206   94.6061   13.8182 C.2     1  UNL1        0.0360
     14 C          66.4138   94.0709   12.4773 C.2     1  UNL1        0.0700
     15 N          66.5389   94.6330   11.0922 N.2     1  UNL1       -0.2477
     16 C          65.9498   93.6405   10.1342 C.2     1  UNL1        0.0947
     17 C          65.4606   92.4649   10.9272 C.2     1  UNL1        0.0062
     18 C          65.7473   92.7310   12.3753 C.3     1  UNL1        0.1069
     19 N          62.1447   88.7318   11.2435 N.pl3   1  UNL1       -0.2876
     20 C          60.9735   89.6534   11.0728 C.3     1  UNL1        0.1243
     21 C          59.9685   89.3962    9.9894 C.3     1  UNL1        0.1636
     22 O          60.1346   88.2174    9.0767 O.3     1  UNL1       -0.3501
     23 C          61.3057   87.2959    9.2475 C.3     1  UNL1        0.1636
     24 C          62.3109   87.5530   10.3309 C.3     1  UNL1        0.1243
     25 C          63.5103   84.4839   15.1390 C.3     1  UNL1        0.1058
     26 N          63.0279   81.0816   12.2335 N.3     1  UNL1       -0.2655
     27 C          64.0798   82.1249   11.9987 C.3     1  UNL1        0.0900
     28 C          64.2405   83.2590   12.9673 C.3     1  UNL1        0.0899
     29 N          63.3495   83.3498   14.1705 N.3     1  UNL1       -0.2661
     30 C          62.2976   82.3064   14.4052 C.3     1  UNL1        0.0899
     31 C          62.1368   81.1724   13.4367 C.3     1  UNL1        0.0900
     32 C          62.4704   79.0411   12.3924 C.3     1  UNL1        0.0253
     33 C          62.8670   79.9475   11.2650 C.3     1  UNL1        0.1145
     34 C          63.2637   80.8540   10.1376 C.3     1  UNL1        0.0253
     35 C          62.7062   78.8134   10.2966 C.2     1  UNL1        0.2321
     36 N          62.8777   77.3983   10.7637 N.am    1  UNL1       -0.3278
     37 O          62.3738   79.0943    8.8611 O.2     1  UNL1       -0.2740
     38 H          63.0958   77.2139   11.7058 H       1  UNL1        0.1450
     39 H          62.7721   76.6539   10.1281 H       1  UNL1        0.1450
@<TRIPOS>BOND
     1    32    33    1
     2    33    34    1
     3    33    35    1
     4    35    36   am
     5    35    37    2
     6    33    26    1
     7    26    27    1
     8    27    28    1
     9    28    29    1
    10    29    25    1
    11    25     1    1
    12     1     2   ar
    13     2     3   ar
    14     3     4   ar
    15     4     5   ar
    16     5    10    1
    17    10    11    2
    18    11    12    1
    19    12    13    2
    20    13    14    1
    21    14    15    2
    22    15    16    1
    23    16    17    2
    24    17    18    1
    25     5     6   ar
    26     6     7   ar
    27     7    19    1
    28    19    20    1
    29    20    21    1
    30    21    22    1
    31    22    23    1
    32    23    24    1
    33     7     8   ar
    34     8     9   ar
    35    29    30    1
    36    30    31    1
    37    31    26    1
    38     9     1   ar
    39     8     3   ar
    40    18    10    1
    41    24    19    1
    42    18    14    1
    43    36    38    1
    44    36    39    1
