@<TRIPOS>MOLECULE
*****
 46 52 0 0 0
SMALL
GASTEIGER

@<TRIPOS>ATOM
      1 C          60.2058   90.0457    6.7394 C.ar    1  UNL1        0.1669
      2 N          60.5983   90.6593    8.0507 N.ar    1  UNL1       -0.2221
      3 C          60.4131   89.6243    9.1206 C.ar    1  UNL1        0.1307
      4 C          60.6406   89.6612   10.6028 C.ar    1  UNL1        0.0777
      5 C          60.3612   88.4448   11.4349 C.ar    1  UNL1        0.0893
      6 CL         60.5886   88.4816   12.9171 Cl      1  UNL1       -0.0794
      7 C          59.8543   87.1916   10.7848 C.ar    1  UNL1        0.0863
      8 N          59.6269   87.1548    9.3026 N.ar    1  UNL1       -0.3354
      9 C          59.9062   88.3711    8.4705 C.ar    1  UNL1        0.1613
     10 N          59.7781   88.6315    6.9989 N.ar    1  UNL1       -0.2080
     11 H          59.2942   86.3323    8.8760 H       1  UNL1        0.1675
     12 C          58.9769   91.3040    4.8273 C.ar    1  UNL1        0.1428
     13 C          59.0070   91.9850    3.4911 C.ar    1  UNL1        0.0515
     14 C          60.2959   92.0886    2.7309 C.ar    1  UNL1        0.0509
     15 C          61.5548   91.5112    3.3068 C.ar    1  UNL1        0.0148
     16 C          61.5247   90.8302    4.6430 C.ar    1  UNL1        0.0074
     17 C          60.2358   90.7266    5.4033 C.ar    1  UNL1        0.0698
     18 N          60.3258   92.7696    1.3947 N.pl3   1  UNL1       -0.3073
     19 C          61.1018   92.1652    0.2622 C.3     1  UNL1        0.0922
     20 C          61.1318   92.8462   -1.0740 C.3     1  UNL1        0.0374
     21 C          60.3859   94.1314   -1.2777 C.3     1  UNL1        0.0610
     22 C          59.6098   94.7359   -0.1452 C.3     1  UNL1        0.0374
     23 C          59.5799   94.0549    1.1910 C.3     1  UNL1        0.0922
     24 N          60.4159   94.8124   -2.6139 N.3     1  UNL1       -0.2715
     25 C          59.2849   94.6186   -3.5800 C.3     1  UNL1        0.0896
     26 C          59.3149   95.2996   -4.9162 C.3     1  UNL1        0.0897
     27 N          60.4758   96.1743   -5.2862 N.3     1  UNL1       -0.2691
     28 C          60.5057   96.8553   -6.6225 C.3     1  UNL1        0.0897
     29 C          61.6068   96.3681   -4.3202 C.3     1  UNL1        0.0897
     30 C          61.5768   95.6871   -2.9840 C.3     1  UNL1        0.0896
     31 C          56.3800   91.3679    4.8725 C.3     1  UNL1        0.2525
     32 O          57.6880   91.2005    5.5875 O.3     1  UNL1       -0.4713
     33 N          61.1475   90.9144   11.2529 N.pl3   1  UNL1       -0.3313
     34 H          60.5127   91.5580   11.6429 H       1  UNL1        0.1469
     35 C          62.6214   91.1869   11.3089 C.3     1  UNL1        0.0819
     36 C          63.5878   90.6092   12.3000 C.3     1  UNL1        0.0983
     37 C          64.9514   91.1502   11.9872 C.3     1  UNL1        0.0323
     38 C          65.7178   92.0483   11.0619 C.2     1  UNL1       -0.0304
     39 C          64.7514   92.6260   10.0708 C.2     1  UNL1       -0.0294
     40 C          63.3877   92.0849   10.3835 C.3     1  UNL1        0.0404
     41 C          63.5113   91.1729   11.5680 C.3     1  UNL1        0.0109
     42 C          63.2499   89.6576   13.4092 C.2     1  UNL1        0.2208
     43 N          62.6499   90.1736   14.6834 N.am    1  UNL1       -0.3288
     44 O          63.5120   88.1899   13.2441 O.2     1  UNL1       -0.2753
     45 H          62.4779   91.1369   14.7918 H       1  UNL1        0.1449
     46 H          62.4282   89.5490   15.4114 H       1  UNL1        0.1449
@<TRIPOS>BOND
     1    31    32    1
     2    32    12    1
     3    12    13   ar
     4    13    14   ar
     5    14    18    1
     6    18    19    1
     7    19    20    1
     8    20    21    1
     9    21    24    1
    10    24    25    1
    11    25    26    1
    12    26    27    1
    13    27    28    1
    14    27    29    1
    15    29    30    1
    16    21    22    1
    17    22    23    1
    18    14    15   ar
    19    15    16   ar
    20    16    17   ar
    21    17     1    1
    22     1     2   ar
    23     2     3   ar
    24     3     4   ar
    25     4    33    1
    26    35    33    1
    27    35    36    1
    28    36    42    1
    29    42    43   am
    30    42    44    2
    31    36    37    1
    32    37    38    1
    33    38    39    2
    34    40    39    1
    35    40    41    1
    36     4     5   ar
    37     5     6    1
    38     5     7   ar
    39     7     8   ar
    40     8     9   ar
    41     9    10   ar
    42    17    12   ar
    43    10     1   ar
    44    23    18    1
    45     9     3    1
    46    30    24    1
    47    40    35    1
    48    41    37    1
    49    33    34    1
    50    43    45    1
    51    43    46    1
    52     8    11    1
@<TRIPOS>MOLECULE
*****
 46 52 0 0 0
SMALL
GASTEIGER

@<TRIPOS>ATOM
      1 C          60.1745   90.0930    6.8911 C.ar    1  UNL1        0.1669
      2 N          60.6079   90.6763    8.2033 N.ar    1  UNL1       -0.2221
      3 C          60.3397   89.6600    9.2734 C.ar    1  UNL1        0.1307
      4 C          60.5637   89.6812   10.7564 C.ar    1  UNL1        0.0777
      5 C          60.1886   88.4909   11.5886 C.ar    1  UNL1        0.0893
      6 CL         60.4126   88.5121   13.0718 Cl      1  UNL1       -0.0794
      7 C          59.5895   87.2796   10.9379 C.ar    1  UNL1        0.0863
      8 N          59.3655   87.2584    9.4548 N.ar    1  UNL1       -0.3354
      9 C          59.7407   88.4486    8.6226 C.ar    1  UNL1        0.1613
     10 N          59.6385   88.7162    7.1502 N.ar    1  UNL1       -0.2080
     11 H          58.9723   86.4633    9.0277 H       1  UNL1        0.1675
     12 C          59.0414   91.3978    4.9511 C.ar    1  UNL1        0.1428
     13 C          59.1287   92.0728    3.6143 C.ar    1  UNL1        0.0515
     14 C          60.4364   92.1178    2.8808 C.ar    1  UNL1        0.0509
     15 C          61.6568   91.4880    3.4841 C.ar    1  UNL1        0.0148
     16 C          61.5694   90.8130    4.8209 C.ar    1  UNL1        0.0074
     17 C          60.2618   90.7679    5.5543 C.ar    1  UNL1        0.0698
     18 N          60.5236   92.7928    1.5441 N.pl3   1  UNL1       -0.3073
     19 C          61.8091   92.7634    0.7717 C.3     1  UNL1        0.0922
     20 C          61.8964   93.4384   -0.5650 C.3     1  UNL1        0.0374
     21 C          60.6983   94.1426   -1.1293 C.3     1  UNL1        0.0610
     22 C          59.4127   94.1720   -0.3569 C.3     1  UNL1        0.0374
     23 C          59.3255   93.4970    0.9799 C.3     1  UNL1        0.0922
     24 N          60.7855   94.8176   -2.4660 N.3     1  UNL1       -0.2715
     25 C          61.9455   94.5356   -3.3743 C.3     1  UNL1        0.0896
     26 C          62.0327   95.2105   -4.7110 C.3     1  UNL1        0.0897
     27 N          60.9600   96.1675   -5.1395 N.3     1  UNL1       -0.2691
     28 C          61.0474   96.8424   -6.4763 C.3     1  UNL1        0.0897
     29 C          59.8001   96.4495   -4.2312 C.3     1  UNL1        0.0897
     30 C          59.7128   95.7745   -2.8945 C.3     1  UNL1        0.0896
     31 C          56.4467   91.2689    4.9186 C.3     1  UNL1        0.2525
     32 O          57.7337   91.3528    5.6845 O.3     1  UNL1       -0.4713
     33 N          61.1628   90.8927   11.4073 N.pl3   1  UNL1       -0.3313
     34 H          60.7300   91.7710   11.3053 H       1  UNL1        0.1469
     35 C          62.4212   90.7658   12.2136 C.3     1  UNL1        0.0819
     36 C          63.7795   91.2590   11.8114 C.3     1  UNL1        0.0983
     37 C          64.7402   90.9214   12.9129 C.3     1  UNL1        0.0323
     38 C          64.8613   90.2790   14.2630 C.2     1  UNL1       -0.0304
     39 C          63.5030   89.7858   14.6652 C.2     1  UNL1       -0.0294
     40 C          62.5424   90.1234   13.5637 C.3     1  UNL1        0.0404
     41 C          63.3069   90.8252   12.4807 C.3     1  UNL1        0.0109
     42 C          64.1178   91.9657   10.5323 C.2     1  UNL1        0.2208
     43 N          63.2579   91.7724    9.3186 N.am    1  UNL1       -0.3288
     44 O          65.3161   92.8656   10.4669 O.2     1  UNL1       -0.2753
     45 H          62.4715   91.1818    9.3615 H       1  UNL1        0.1449
     46 H          63.4800   92.2363    8.4790 H       1  UNL1        0.1449
@<TRIPOS>BOND
     1    31    32    1
     2    32    12    1
     3    12    13   ar
     4    13    14   ar
     5    14    18    1
     6    18    19    1
     7    19    20    1
     8    20    21    1
     9    21    24    1
    10    24    25    1
    11    25    26    1
    12    26    27    1
    13    27    28    1
    14    27    29    1
    15    29    30    1
    16    21    22    1
    17    22    23    1
    18    14    15   ar
    19    15    16   ar
    20    16    17   ar
    21    17     1    1
    22     1     2   ar
    23     2     3   ar
    24     3     4   ar
    25     4    33    1
    26    35    33    1
    27    35    36    1
    28    36    42    1
    29    42    43   am
    30    42    44    2
    31    36    37    1
    32    37    38    1
    33    38    39    2
    34    40    39    1
    35    40    41    1
    36     4     5   ar
    37     5     6    1
    38     5     7   ar
    39     7     8   ar
    40     8     9   ar
    41     9    10   ar
    42    17    12   ar
    43    10     1   ar
    44    23    18    1
    45     9     3    1
    46    30    24    1
    47    40    35    1
    48    41    37    1
    49    33    34    1
    50    43    45    1
    51    43    46    1
    52     8    11    1
@<TRIPOS>MOLECULE
*****
 46 52 0 0 0
SMALL
GASTEIGER

@<TRIPOS>ATOM
      1 C          61.8711   86.6306   10.7852 C.ar    1  UNL1        0.1669
      2 N          62.8504   86.9227   11.8832 N.ar    1  UNL1       -0.2221
      3 C          62.8649   85.7480   12.8158 C.ar    1  UNL1        0.1307
      4 C          63.6364   85.4738   14.0727 C.ar    1  UNL1        0.0777
      5 C          63.4374   84.1815   14.8079 C.ar    1  UNL1        0.0893
      6 CL         64.2089   83.9072   16.0648 Cl      1  UNL1       -0.0794
      7 C          62.4672   83.1635   14.2863 C.ar    1  UNL1        0.0863
      8 N          61.6957   83.4377   13.0294 N.ar    1  UNL1       -0.3354
      9 C          61.8946   84.7299   12.2942 C.ar    1  UNL1        0.1613
     10 N          61.2804   85.2754   11.0392 N.ar    1  UNL1       -0.2080
     11 H          61.0589   82.7695   12.6871 H       1  UNL1        0.1675
     12 C          61.8835   88.9936    9.7052 C.ar    1  UNL1        0.1428
     13 C          61.5529   89.8979    8.5550 C.ar    1  UNL1        0.0515
     14 C          60.8793   89.3437    7.3347 C.ar    1  UNL1        0.0509
     15 C          60.5363   87.8852    7.2645 C.ar    1  UNL1        0.0148
     16 C          60.8669   86.9809    8.4147 C.ar    1  UNL1        0.0074
     17 C          61.5405   87.5350    9.6350 C.ar    1  UNL1        0.0698
     18 N          60.5487   90.2481    6.1845 N.pl3   1  UNL1       -0.3073
     19 C          59.1337   90.6939    5.9638 C.3     1  UNL1        0.0922
     20 C          58.8031   91.5983    4.8137 C.3     1  UNL1        0.0374
     21 C          59.8874   92.0568    3.8843 C.3     1  UNL1        0.0610
     22 C          61.3026   91.6110    4.1050 C.3     1  UNL1        0.0374
     23 C          61.6332   90.7066    5.2552 C.3     1  UNL1        0.0922
     24 N          59.5569   92.9612    2.7342 N.3     1  UNL1       -0.2715
     25 C          58.7191   92.4540    1.5980 C.3     1  UNL1        0.0896
     26 C          58.3885   93.3584    0.4479 C.3     1  UNL1        0.0897
     27 N          58.8957   94.7700    0.4339 N.3     1  UNL1       -0.2691
     28 C          58.5651   95.6743   -0.7163 C.3     1  UNL1        0.0897
     29 C          59.7335   95.2772    1.5700 C.3     1  UNL1        0.0897
     30 C          60.0641   94.3728    2.7202 C.3     1  UNL1        0.0896
     31 C          63.1555   90.9229   10.8925 C.3     1  UNL1        0.2525
     32 O          62.5571   89.5478   10.9254 O.3     1  UNL1       -0.4713
     33 N          64.6067   86.4918   14.5944 N.pl3   1  UNL1       -0.3313
     34 H          65.5726   86.3018   14.5838 H       1  UNL1        0.1469
     35 C          64.1053   87.7992   15.1321 C.3     1  UNL1        0.0819
     36 C          63.2026   87.9772   16.3167 C.3     1  UNL1        0.0983
     37 C          62.9580   89.4462   16.4965 C.3     1  UNL1        0.0323
     38 C          63.2713   90.8051   15.9440 C.2     1  UNL1       -0.0304
     39 C          64.1740   90.6271   14.7594 C.2     1  UNL1       -0.0294
     40 C          64.4186   89.1581   14.5797 C.3     1  UNL1        0.0404
     41 C          63.6671   88.4283   15.6532 C.3     1  UNL1        0.0109
     42 C          62.6428   86.8791   17.1716 C.2     1  UNL1        0.2208
     43 N          63.1931   86.6450   18.5472 N.am    1  UNL1       -0.3288
     44 O          61.5327   86.0151   16.6508 O.2     1  UNL1       -0.2753
     45 H          63.9217   87.2120   18.8890 H       1  UNL1        0.1449
     46 H          62.8257   85.9242   19.1083 H       1  UNL1        0.1449
@<TRIPOS>BOND
     1    31    32    1
     2    32    12    1
     3    12    13   ar
     4    13    14   ar
     5    14    18    1
     6    18    19    1
     7    19    20    1
     8    20    21    1
     9    21    24    1
    10    24    25    1
    11    25    26    1
    12    26    27    1
    13    27    28    1
    14    27    29    1
    15    29    30    1
    16    21    22    1
    17    22    23    1
    18    14    15   ar
    19    15    16   ar
    20    16    17   ar
    21    17     1    1
    22     1     2   ar
    23     2     3   ar
    24     3     4   ar
    25     4    33    1
    26    35    33    1
    27    35    36    1
    28    36    42    1
    29    42    43   am
    30    42    44    2
    31    36    37    1
    32    37    38    1
    33    38    39    2
    34    40    39    1
    35    40    41    1
    36     4     5   ar
    37     5     6    1
    38     5     7   ar
    39     7     8   ar
    40     8     9   ar
    41     9    10   ar
    42    17    12   ar
    43    10     1   ar
    44    23    18    1
    45     9     3    1
    46    30    24    1
    47    40    35    1
    48    41    37    1
    49    33    34    1
    50    43    45    1
    51    43    46    1
    52     8    11    1
@<TRIPOS>MOLECULE
*****
 46 52 0 0 0
SMALL
GASTEIGER

@<TRIPOS>ATOM
      1 C          61.8621   86.7917   10.6973 C.ar    1  UNL1        0.1669
      2 N          62.8500   87.0880   11.7865 N.ar    1  UNL1       -0.2221
      3 C          62.8635   85.9218   12.7298 C.ar    1  UNL1        0.1307
      4 C          63.6412   85.6546   13.9842 C.ar    1  UNL1        0.0777
      5 C          63.4394   84.3702   14.7325 C.ar    1  UNL1        0.0893
      6 CL         64.2172   84.1030   15.9870 Cl      1  UNL1       -0.0794
      7 C          62.4600   83.3532   14.2263 C.ar    1  UNL1        0.0863
      8 N          61.6823   83.6204   12.9718 N.ar    1  UNL1       -0.3354
      9 C          61.8841   84.9047   12.2235 C.ar    1  UNL1        0.1613
     10 N          61.2651   85.4424   10.9674 N.ar    1  UNL1       -0.2080
     11 H          61.0395   82.9529   12.6395 H       1  UNL1        0.1675
     12 C          60.9123   87.1129    8.3005 C.ar    1  UNL1        0.1428
     13 C          60.5798   88.0088    7.1443 C.ar    1  UNL1        0.0515
     14 C          60.8645   89.4791    7.2285 C.ar    1  UNL1        0.0509
     15 C          61.4817   90.0537    8.4690 C.ar    1  UNL1        0.0148
     16 C          61.8142   89.1578    9.6253 C.ar    1  UNL1        0.0074
     17 C          61.5295   87.6875    9.5410 C.ar    1  UNL1        0.0698
     18 N          60.5319   90.3749    6.0722 N.pl3   1  UNL1       -0.3073
     19 C          61.6154   90.8288    5.1394 C.3     1  UNL1        0.0922
     20 C          61.2828   91.7246    3.9831 C.3     1  UNL1        0.0374
     21 C          59.8670   92.1664    3.7596 C.3     1  UNL1        0.0610
     22 C          58.7834   91.7124    4.6924 C.3     1  UNL1        0.0374
     23 C          59.1160   90.8166    5.8487 C.3     1  UNL1        0.0922
     24 N          59.5344   93.0621    2.6033 N.3     1  UNL1       -0.2715
     25 C          58.7043   92.5430    1.4669 C.3     1  UNL1        0.0896
     26 C          58.3717   93.4388    0.3106 C.3     1  UNL1        0.0897
     27 N          58.8693   94.8537    0.2907 N.3     1  UNL1       -0.2691
     28 C          58.5367   95.7494   -0.8657 C.3     1  UNL1        0.0897
     29 C          59.6994   95.3728    1.4271 C.3     1  UNL1        0.0897
     30 C          60.0320   94.4771    2.5834 C.3     1  UNL1        0.0896
     31 C          61.1235   84.8486    7.0442 C.3     1  UNL1        0.2525
     32 O          60.6276   85.6427    8.2162 O.3     1  UNL1       -0.4713
     33 N          64.6207   86.6716   14.4905 N.pl3   1  UNL1       -0.3313
     34 H          65.5877   86.4969   14.4292 H       1  UNL1        0.1469
     35 C          64.1270   87.9547   15.0903 C.3     1  UNL1        0.0819
     36 C          63.2238   88.0811   16.2812 C.3     1  UNL1        0.0983
     37 C          62.9883   89.5412   16.5315 C.3     1  UNL1        0.0323
     38 C          63.3110   90.9232   16.0457 C.2     1  UNL1       -0.0304
     39 C          64.2141   90.7968   14.8548 C.2     1  UNL1       -0.0294
     40 C          64.4496   89.3367   14.6045 C.3     1  UNL1        0.0404
     41 C          63.6921   88.5607   15.6408 C.3     1  UNL1        0.0109
     42 C          62.6559   86.9466   17.0815 C.2     1  UNL1        0.2208
     43 N          63.4082   86.4124   18.2641 N.am    1  UNL1       -0.3288
     44 O          61.3355   86.3462   16.6991 O.2     1  UNL1       -0.2753
     45 H          64.2748   86.8065   18.5150 H       1  UNL1        0.1449
     46 H          63.0355   85.6678   18.7893 H       1  UNL1        0.1449
@<TRIPOS>BOND
     1    31    32    1
     2    32    12    1
     3    12    13   ar
     4    13    14   ar
     5    14    18    1
     6    18    19    1
     7    19    20    1
     8    20    21    1
     9    21    24    1
    10    24    25    1
    11    25    26    1
    12    26    27    1
    13    27    28    1
    14    27    29    1
    15    29    30    1
    16    21    22    1
    17    22    23    1
    18    14    15   ar
    19    15    16   ar
    20    16    17   ar
    21    17     1    1
    22     1     2   ar
    23     2     3   ar
    24     3     4   ar
    25     4    33    1
    26    35    33    1
    27    35    36    1
    28    36    42    1
    29    42    43   am
    30    42    44    2
    31    36    37    1
    32    37    38    1
    33    38    39    2
    34    40    39    1
    35    40    41    1
    36     4     5   ar
    37     5     6    1
    38     5     7   ar
    39     7     8   ar
    40     8     9   ar
    41     9    10   ar
    42    17    12   ar
    43    10     1   ar
    44    23    18    1
    45     9     3    1
    46    30    24    1
    47    40    35    1
    48    41    37    1
    49    33    34    1
    50    43    45    1
    51    43    46    1
    52     8    11    1
@<TRIPOS>MOLECULE
*****
 46 52 0 0 0
SMALL
GASTEIGER

@<TRIPOS>ATOM
      1 C          61.7551   86.5811   10.2023 C.ar    1  UNL1        0.1669
      2 N          62.6116   86.8800   11.3969 N.ar    1  UNL1       -0.2221
      3 C          62.6721   85.6441   12.2447 C.ar    1  UNL1        0.1307
      4 C          63.3673   85.3491   13.5408 C.ar    1  UNL1        0.0777
      5 C          63.2434   83.9913   14.1662 C.ar    1  UNL1        0.0893
      6 CL         63.9386   83.6963   15.4623 Cl      1  UNL1       -0.0794
      7 C          62.4243   82.9286   13.4956 C.ar    1  UNL1        0.0863
      8 N          61.7291   83.2236   12.1996 N.ar    1  UNL1       -0.3354
      9 C          61.8531   84.5813   11.5742 C.ar    1  UNL1        0.1613
     10 N          61.2863   85.1604   10.3119 N.ar    1  UNL1       -0.2080
     11 H          61.1916   82.5261   11.7595 H       1  UNL1        0.1675
     12 C          61.7510   88.9925    9.2354 C.ar    1  UNL1        0.1428
     13 C          61.4211   89.9467    8.1260 C.ar    1  UNL1        0.0515
     14 C          60.7655   89.4436    6.8741 C.ar    1  UNL1        0.0509
     15 C          60.4398   87.9864    6.7317 C.ar    1  UNL1        0.0148
     16 C          60.7697   87.0322    7.8411 C.ar    1  UNL1        0.0074
     17 C          61.4252   87.5353    9.0930 C.ar    1  UNL1        0.0698
     18 N          60.4357   90.3978    5.7647 N.pl3   1  UNL1       -0.3073
     19 C          59.0373   90.9194    5.6152 C.3     1  UNL1        0.0922
     20 C          58.7075   91.8736    4.5058 C.3     1  UNL1        0.0374
     21 C          59.7759   92.3062    3.5461 C.3     1  UNL1        0.0610
     22 C          61.1744   91.7846    3.6956 C.3     1  UNL1        0.0374
     23 C          61.5042   90.8304    4.8050 C.3     1  UNL1        0.0922
     24 N          59.4461   93.2604    2.4367 N.3     1  UNL1       -0.2715
     25 C          58.6189   92.8005    1.2729 C.3     1  UNL1        0.0896
     26 C          58.2891   93.7547    0.1636 C.3     1  UNL1        0.0897
     27 N          58.7864   95.1688    0.2179 N.3     1  UNL1       -0.2691
     28 C          58.4565   96.1229   -0.8915 C.3     1  UNL1        0.0897
     29 C          59.6135   95.6287    1.3816 C.3     1  UNL1        0.0897
     30 C          59.9434   94.6745    2.4910 C.3     1  UNL1        0.0896
     31 C          63.0338   90.8580   10.5099 C.3     1  UNL1        0.2525
     32 O          62.4065   89.4957   10.4872 O.3     1  UNL1       -0.4713
     33 N          64.1865   86.4118   14.2114 N.pl3   1  UNL1       -0.3313
     34 H          65.0334   86.7090   13.8070 H       1  UNL1        0.1469
     35 C          63.7152   87.0216   15.4982 C.3     1  UNL1        0.0819
     36 C          63.5325   88.4864   15.7648 C.3     1  UNL1        0.0983
     37 C          63.0482   88.6439   17.1757 C.3     1  UNL1        0.0323
     38 C          62.6768   87.8961   18.4219 C.2     1  UNL1       -0.0304
     39 C          62.8594   86.4313   18.1553 C.2     1  UNL1       -0.0294
     40 C          63.3438   86.2738   16.7443 C.3     1  UNL1        0.0404
     41 C          63.4604   87.6413   16.1389 C.3     1  UNL1        0.0109
     42 C          63.7891   89.5985   14.7914 C.2     1  UNL1        0.2208
     43 N          62.6526   90.1891   14.0108 N.am    1  UNL1       -0.3288
     44 O          65.1823   90.1200   14.5987 O.2     1  UNL1       -0.2753
     45 H          61.7382   89.8468   14.1373 H       1  UNL1        0.1449
     46 H          62.8210   90.9190   13.3719 H       1  UNL1        0.1449
@<TRIPOS>BOND
     1    31    32    1
     2    32    12    1
     3    12    13   ar
     4    13    14   ar
     5    14    18    1
     6    18    19    1
     7    19    20    1
     8    20    21    1
     9    21    24    1
    10    24    25    1
    11    25    26    1
    12    26    27    1
    13    27    28    1
    14    27    29    1
    15    29    30    1
    16    21    22    1
    17    22    23    1
    18    14    15   ar
    19    15    16   ar
    20    16    17   ar
    21    17     1    1
    22     1     2   ar
    23     2     3   ar
    24     3     4   ar
    25     4    33    1
    26    35    33    1
    27    35    36    1
    28    36    42    1
    29    42    43   am
    30    42    44    2
    31    36    37    1
    32    37    38    1
    33    38    39    2
    34    40    39    1
    35    40    41    1
    36     4     5   ar
    37     5     6    1
    38     5     7   ar
    39     7     8   ar
    40     8     9   ar
    41     9    10   ar
    42    17    12   ar
    43    10     1   ar
    44    23    18    1
    45     9     3    1
    46    30    24    1
    47    40    35    1
    48    41    37    1
    49    33    34    1
    50    43    45    1
    51    43    46    1
    52     8    11    1
@<TRIPOS>MOLECULE
*****
 46 52 0 0 0
SMALL
GASTEIGER

@<TRIPOS>ATOM
      1 C          59.2849   92.6641    2.4963 C.ar    1  UNL1        0.1669
      2 N          59.9731   93.8928    1.9800 N.ar    1  UNL1       -0.2221
      3 C          59.2536   94.3416    0.7427 C.ar    1  UNL1        0.1307
      4 C          59.4836   95.4937   -0.1899 C.ar    1  UNL1        0.0777
      5 C          58.5808   95.6944   -1.3709 C.ar    1  UNL1        0.0893
      6 CL         58.8108   96.8465   -2.3036 Cl      1  UNL1       -0.0794
      7 C          57.4480   94.7431   -1.6192 C.ar    1  UNL1        0.0863
      8 N          57.2180   93.5910   -0.6865 N.ar    1  UNL1       -0.3354
      9 C          58.1208   93.3903    0.4944 C.ar    1  UNL1        0.1613
     10 N          58.1401   92.3535    1.5782 N.ar    1  UNL1       -0.2080
     11 H          56.4744   92.9666   -0.8495 H       1  UNL1        0.1675
     12 C          61.1168   91.5712    3.9795 C.ar    1  UNL1        0.1428
     13 C          61.5052   90.7901    5.1998 C.ar    1  UNL1        0.0515
     14 C          60.4501   90.3209    6.1573 C.ar    1  UNL1        0.0509
     15 C          59.0067   90.6328    5.8944 C.ar    1  UNL1        0.0148
     16 C          58.6183   91.4139    4.6741 C.ar    1  UNL1        0.0074
     17 C          59.6734   91.8830    3.7166 C.ar    1  UNL1        0.0698
     18 N          60.8386   89.5399    7.3775 N.pl3   1  UNL1       -0.3073
     19 C          61.6493   90.1914    8.4583 C.3     1  UNL1        0.0922
     20 C          62.0377   89.4104    9.6786 C.3     1  UNL1        0.0374
     21 C          61.6155   87.9779    9.8181 C.3     1  UNL1        0.0610
     22 C          60.8047   87.3263    8.7373 C.3     1  UNL1        0.0374
     23 C          60.4162   88.1073    7.5170 C.3     1  UNL1        0.0922
     24 N          62.0039   87.1968   11.0384 N.3     1  UNL1       -0.2715
     25 C          61.5394   85.7799   11.2013 C.3     1  UNL1        0.0896
     26 C          61.9278   84.9989   12.4215 C.3     1  UNL1        0.0897
     27 N          62.7807   85.6347   13.4790 N.3     1  UNL1       -0.2691
     28 C          63.1691   84.8536   14.6992 C.3     1  UNL1        0.0897
     29 C          63.2452   87.0516   13.3161 C.3     1  UNL1        0.0897
     30 C          62.8568   87.8327   12.0958 C.3     1  UNL1        0.0896
     31 C          63.4716   91.2990    2.9161 C.3     1  UNL1        0.2525
     32 O          62.1719   92.0403    3.0221 O.3     1  UNL1       -0.4713
     33 N          60.6165   96.4451    0.0583 N.pl3   1  UNL1       -0.3313
     34 H          60.4299   97.3891    0.2664 H       1  UNL1        0.1469
     35 C          62.0335   95.9582   -0.0104 C.3     1  UNL1        0.0819
     36 C          62.7397   95.4710   -1.2409 C.3     1  UNL1        0.0983
     37 C          64.1359   95.0847   -0.8518 C.3     1  UNL1        0.0323
     38 C          65.0956   94.9994    0.2978 C.2     1  UNL1       -0.0304
     39 C          64.3895   95.4866    1.5283 C.2     1  UNL1       -0.0294
     40 C          62.9933   95.8729    1.1392 C.3     1  UNL1        0.0404
     41 C          62.8365   95.6246   -0.3318 C.3     1  UNL1        0.0109
     42 C          62.1527   95.3853   -2.6187 C.2     1  UNL1        0.2208
     43 N          61.5015   94.1147   -3.0787 N.am    1  UNL1       -0.3288
     44 O          62.2169   96.5701   -3.5363 O.2     1  UNL1       -0.2753
     45 H          61.4593   93.3371   -2.4764 H       1  UNL1        0.1449
     46 H          61.1162   94.0585   -3.9829 H       1  UNL1        0.1449
@<TRIPOS>BOND
     1    31    32    1
     2    32    12    1
     3    12    13   ar
     4    13    14   ar
     5    14    18    1
     6    18    19    1
     7    19    20    1
     8    20    21    1
     9    21    24    1
    10    24    25    1
    11    25    26    1
    12    26    27    1
    13    27    28    1
    14    27    29    1
    15    29    30    1
    16    21    22    1
    17    22    23    1
    18    14    15   ar
    19    15    16   ar
    20    16    17   ar
    21    17     1    1
    22     1     2   ar
    23     2     3   ar
    24     3     4   ar
    25     4    33    1
    26    35    33    1
    27    35    36    1
    28    36    42    1
    29    42    43   am
    30    42    44    2
    31    36    37    1
    32    37    38    1
    33    38    39    2
    34    40    39    1
    35    40    41    1
    36     4     5   ar
    37     5     6    1
    38     5     7   ar
    39     7     8   ar
    40     8     9   ar
    41     9    10   ar
    42    17    12   ar
    43    10     1   ar
    44    23    18    1
    45     9     3    1
    46    30    24    1
    47    40    35    1
    48    41    37    1
    49    33    34    1
    50    43    45    1
    51    43    46    1
    52     8    11    1
@<TRIPOS>MOLECULE
*****
 46 52 0 0 0
SMALL
GASTEIGER

@<TRIPOS>ATOM
      1 C          59.3893   92.6801    2.5306 C.ar    1  UNL1        0.1669
      2 N          60.1315   93.8641    1.9854 N.ar    1  UNL1       -0.2221
      3 C          59.4038   94.3456    0.7653 C.ar    1  UNL1        0.1307
      4 C          59.6725   95.4768   -0.1825 C.ar    1  UNL1        0.0777
      5 C          58.7493   95.7214   -1.3392 C.ar    1  UNL1        0.0893
      6 CL         59.0180   96.8526   -2.2870 Cl      1  UNL1       -0.0794
      7 C          57.5575   94.8350   -1.5480 C.ar    1  UNL1        0.0863
      8 N          57.2887   93.7039   -0.6002 N.ar    1  UNL1       -0.3354
      9 C          58.2119   93.4592    0.5564 C.ar    1  UNL1        0.1613
     10 N          58.2030   92.4298    1.6474 N.ar    1  UNL1       -0.2080
     11 H          56.5065   93.1221   -0.7373 H       1  UNL1        0.1675
     12 C          58.7163   91.4919    4.7408 C.ar    1  UNL1        0.1428
     13 C          59.0942   90.6975    5.9558 C.ar    1  UNL1        0.0515
     14 C          60.5230   90.2971    6.1756 C.ar    1  UNL1        0.0509
     15 C          61.5739   90.6909    5.1804 C.ar    1  UNL1        0.0148
     16 C          61.1959   91.4853    3.9654 C.ar    1  UNL1        0.0074
     17 C          59.7672   91.8858    3.7456 C.ar    1  UNL1        0.0698
     18 N          60.9008   89.5027    7.3906 N.pl3   1  UNL1       -0.3073
     19 C          60.4828   88.0670    7.5078 C.3     1  UNL1        0.0922
     20 C          60.8606   87.2726    8.7228 C.3     1  UNL1        0.0374
     21 C          61.6564   87.9140    9.8206 C.3     1  UNL1        0.0610
     22 C          62.0745   89.3498    9.7034 C.3     1  UNL1        0.0374
     23 C          61.6967   90.1442    8.4884 C.3     1  UNL1        0.0922
     24 N          62.0343   87.1196   11.0356 N.3     1  UNL1       -0.2715
     25 C          61.5776   85.6976   11.1738 C.3     1  UNL1        0.0896
     26 C          61.9555   84.9032   12.3888 C.3     1  UNL1        0.0897
     27 N          62.7900   85.5309   13.4656 N.3     1  UNL1       -0.2691
     28 C          63.1678   84.7365   14.6806 C.3     1  UNL1        0.0897
     29 C          63.2467   86.9530   13.3274 C.3     1  UNL1        0.0897
     30 C          62.8688   87.7474   12.1124 C.3     1  UNL1        0.0896
     31 C          56.1800   91.0833    5.1284 C.3     1  UNL1        0.2525
     32 O          57.2876   91.8923    4.5211 O.3     1  UNL1       -0.4713
     33 N          60.8644   96.3633    0.0263 N.pl3   1  UNL1       -0.3313
     34 H          60.7985   97.1446    0.6217 H       1  UNL1        0.1469
     35 C          62.1567   96.0594   -0.6720 C.3     1  UNL1        0.0819
     36 C          63.3927   95.4979   -0.0341 C.3     1  UNL1        0.0983
     37 C          64.4397   95.3551   -1.0987 C.3     1  UNL1        0.0323
     38 C          64.7229   95.5594   -2.5574 C.2     1  UNL1       -0.0304
     39 C          63.4869   96.1209   -3.1953 C.2     1  UNL1       -0.0294
     40 C          62.4398   96.2637   -2.1308 C.3     1  UNL1        0.0404
     41 C          63.0287   95.7904   -0.8349 C.3     1  UNL1        0.0109
     42 C          63.5534   95.1416    1.4141 C.2     1  UNL1        0.2208
     43 N          63.0913   93.8048    1.9134 N.am    1  UNL1       -0.3288
     44 O          64.1763   96.1222    2.3630 O.2     1  UNL1       -0.2753
     45 H          62.6825   93.1612    1.2906 H       1  UNL1        0.1449
     46 H          63.1968   93.5710    2.8639 H       1  UNL1        0.1449
@<TRIPOS>BOND
     1    31    32    1
     2    32    12    1
     3    12    13   ar
     4    13    14   ar
     5    14    18    1
     6    18    19    1
     7    19    20    1
     8    20    21    1
     9    21    24    1
    10    24    25    1
    11    25    26    1
    12    26    27    1
    13    27    28    1
    14    27    29    1
    15    29    30    1
    16    21    22    1
    17    22    23    1
    18    14    15   ar
    19    15    16   ar
    20    16    17   ar
    21    17     1    1
    22     1     2   ar
    23     2     3   ar
    24     3     4   ar
    25     4    33    1
    26    35    33    1
    27    35    36    1
    28    36    42    1
    29    42    43   am
    30    42    44    2
    31    36    37    1
    32    37    38    1
    33    38    39    2
    34    40    39    1
    35    40    41    1
    36     4     5   ar
    37     5     6    1
    38     5     7   ar
    39     7     8   ar
    40     8     9   ar
    41     9    10   ar
    42    17    12   ar
    43    10     1   ar
    44    23    18    1
    45     9     3    1
    46    30    24    1
    47    40    35    1
    48    41    37    1
    49    33    34    1
    50    43    45    1
    51    43    46    1
    52     8    11    1
@<TRIPOS>MOLECULE
*****
 46 52 0 0 0
SMALL
GASTEIGER

@<TRIPOS>ATOM
      1 C          59.3261   92.9964    2.0372 C.ar    1  UNL1        0.1669
      2 N          60.2869   93.8030    1.2150 N.ar    1  UNL1       -0.2221
      3 C          59.5153   94.4518    0.1043 C.ar    1  UNL1        0.1307
      4 C          59.9361   95.3595   -1.0132 C.ar    1  UNL1        0.0777
      5 C          58.9192   95.8616   -1.9950 C.ar    1  UNL1        0.0893
      6 CL         59.3400   96.7694   -3.1126 Cl      1  UNL1       -0.0794
      7 C          57.4815   95.4559   -1.8592 C.ar    1  UNL1        0.0863
      8 N          57.0607   94.5482   -0.7417 N.ar    1  UNL1       -0.3354
      9 C          58.0776   94.0461    0.2400 C.ar    1  UNL1        0.1613
     10 N          57.9607   93.1466    1.4347 N.ar    1  UNL1       -0.2080
     11 H          56.1171   94.2819   -0.6526 H       1  UNL1        0.1675
     12 C          61.0904   91.7669    3.4952 C.ar    1  UNL1        0.1428
     13 C          61.4344   90.9529    4.7073 C.ar    1  UNL1        0.0515
     14 C          60.3584   90.5544    5.6734 C.ar    1  UNL1        0.0509
     15 C          58.9383   90.9698    5.4274 C.ar    1  UNL1        0.0148
     16 C          58.5942   91.7838    4.2153 C.ar    1  UNL1        0.0074
     17 C          59.6702   92.1824    3.2493 C.ar    1  UNL1        0.0698
     18 N          60.7026   89.7404    6.8854 N.pl3   1  UNL1       -0.3073
     19 C          60.3087   88.2947    6.9544 C.3     1  UNL1        0.0922
     20 C          60.6528   87.4807    8.1665 C.3     1  UNL1        0.0374
     21 C          61.3908   88.1124    9.3094 C.3     1  UNL1        0.0610
     22 C          61.7847   89.5581    9.2404 C.3     1  UNL1        0.0374
     23 C          61.4406   90.3721    8.0283 C.3     1  UNL1        0.0922
     24 N          61.7349   87.2984   10.5214 N.3     1  UNL1       -0.2715
     25 C          61.2902   85.8689   10.6159 C.3     1  UNL1        0.0896
     26 C          61.6344   85.0550   11.8279 C.3     1  UNL1        0.0897
     27 N          62.4232   85.6704   12.9455 N.3     1  UNL1       -0.2691
     28 C          62.7673   84.8563   14.1575 C.3     1  UNL1        0.0897
     29 C          62.8679   87.0999   12.8510 C.3     1  UNL1        0.0897
     30 C          62.5237   87.9138   11.6390 C.3     1  UNL1        0.0896
     31 C          63.5469   91.5950    2.6670 C.3     1  UNL1        0.2525
     32 O          62.1665   92.1654    2.5292 O.3     1  UNL1       -0.4713
     33 N          61.3739   95.7653   -1.1491 N.pl3   1  UNL1       -0.3313
     34 H          61.7016   96.5754   -0.6959 H       1  UNL1        0.1469
     35 C          62.3121   94.9366   -1.9754 C.3     1  UNL1        0.0819
     36 C          63.5545   94.2558   -1.4824 C.3     1  UNL1        0.0983
     37 C          64.1830   93.5417   -2.6422 C.3     1  UNL1        0.0323
     38 C          64.0437   93.2483   -4.1066 C.2     1  UNL1       -0.0304
     39 C          62.8014   93.9291   -4.5996 C.2     1  UNL1       -0.0294
     40 C          62.1728   94.6433   -3.4399 C.3     1  UNL1        0.0404
     41 C          63.0267   94.4038   -2.2301 C.3     1  UNL1        0.0109
     42 C          64.0766   94.2841   -0.0765 C.2     1  UNL1        0.2208
     43 N          65.3106   93.5098    0.2810 N.am    1  UNL1       -0.3288
     44 O          63.3648   95.0867    0.9719 O.2     1  UNL1       -0.2753
     45 H          65.7777   92.9830   -0.4071 H       1  UNL1        0.1449
     46 H          65.6533   93.5284    1.2037 H       1  UNL1        0.1449
@<TRIPOS>BOND
     1    31    32    1
     2    32    12    1
     3    12    13   ar
     4    13    14   ar
     5    14    18    1
     6    18    19    1
     7    19    20    1
     8    20    21    1
     9    21    24    1
    10    24    25    1
    11    25    26    1
    12    26    27    1
    13    27    28    1
    14    27    29    1
    15    29    30    1
    16    21    22    1
    17    22    23    1
    18    14    15   ar
    19    15    16   ar
    20    16    17   ar
    21    17     1    1
    22     1     2   ar
    23     2     3   ar
    24     3     4   ar
    25     4    33    1
    26    35    33    1
    27    35    36    1
    28    36    42    1
    29    42    43   am
    30    42    44    2
    31    36    37    1
    32    37    38    1
    33    38    39    2
    34    40    39    1
    35    40    41    1
    36     4     5   ar
    37     5     6    1
    38     5     7   ar
    39     7     8   ar
    40     8     9   ar
    41     9    10   ar
    42    17    12   ar
    43    10     1   ar
    44    23    18    1
    45     9     3    1
    46    30    24    1
    47    40    35    1
    48    41    37    1
    49    33    34    1
    50    43    45    1
    51    43    46    1
    52     8    11    1
