@<TRIPOS>MOLECULE
*****
 29 32 0 0 0
SMALL
GASTEIGER

@<TRIPOS>ATOM
      1 C          65.6288   92.3398   12.7736 C.ar    1  UNL1        0.0594
      2 C          65.5397   91.5144   14.0229 C.ar    1  UNL1        0.0847
      3 N          64.4629   90.4890   13.8251 N.ar    1  UNL1       -0.2880
      4 C          63.8865   90.6807   12.4535 C.ar    1  UNL1        0.1478
      5 N          62.7987   89.9615   11.7124 N.ar    1  UNL1       -0.2264
      6 C          62.4315   90.3862   10.3215 C.ar    1  UNL1        0.1005
      7 C          63.1521   91.5300    9.6716 C.ar    1  UNL1        0.0208
      8 C          64.2400   92.2492   10.4128 C.ar    1  UNL1        0.0047
      9 C          64.6072   91.8246   11.8037 C.ar    1  UNL1        0.0391
     10 C          64.0371   89.4537   14.8235 C.ar    1  UNL1        0.0927
     11 C          64.2141   87.9965   14.5147 C.ar    1  UNL1        0.0199
     12 C          63.7883   86.9612   15.5131 C.ar    1  UNL1        0.0028
     13 C          63.1855   87.3830   16.8203 C.ar    1  UNL1        0.0163
     14 C          63.0085   88.8401   17.1290 C.ar    1  UNL1        0.0323
     15 C          63.4343   89.8755   16.1306 C.ar    1  UNL1        0.1562
     16 F          63.2572   91.3327   16.4395 F       1  UNL1       -0.2026
     17 C          62.7597   86.3477   17.8187 C.2     1  UNL1        0.0729
     18 O          62.7277   86.6836   19.2802 O.co2   1  UNL1       -0.5446
     19 O          62.3660   84.9764   17.3555 O.co2   1  UNL1       -0.5446
     20 C          66.5738   93.4802   12.5360 C.2     1  UNL1        0.1976
     21 O          67.1739   94.2121   13.6996 O.2     1  UNL1       -0.2865
     22 C          68.2319   91.6706   10.8110 C.3     1  UNL1        0.0312
     23 C          67.7478   92.9840   10.2719 C.ar    1  UNL1       -0.0179
     24 C          68.0927   93.3925    8.8705 C.ar    1  UNL1       -0.0041
     25 C          67.6086   94.7060    8.3316 C.ar    1  UNL1        0.0005
     26 C          66.7795   95.6108    9.1941 C.ar    1  UNL1        0.0115
     27 C          66.4346   95.2023   10.5955 C.ar    1  UNL1        0.0604
     28 CL         65.6055   96.1071   11.4580 Cl      1  UNL1       -0.0822
     29 C          66.9187   93.8888   11.1344 C.ar    1  UNL1        0.0456
@<TRIPOS>UNITY_ATOM_ATTR
18 1
charge -1
@<TRIPOS>BOND
     1    22    23    1
     2    23    24   ar
     3    24    25   ar
     4    25    26   ar
     5    26    27   ar
     6    27    28    1
     7    27    29   ar
     8    29    20    1
     9    20    21    2
    10    20     1    1
    11     1     2   ar
    12     2     3   ar
    13     3    10    1
    14    10    11   ar
    15    11    12   ar
    16    12    13   ar
    17    13    17    1
    18    17    18   ar
    19    17    19   ar
    20    13    14   ar
    21    14    15   ar
    22    15    16    1
    23     3     4   ar
    24     4     5   ar
    25     5     6   ar
    26     6     7   ar
    27     7     8   ar
    28     8     9   ar
    29    29    23   ar
    30     9     1   ar
    31    15    10   ar
    32     9     4   ar
@<TRIPOS>MOLECULE
*****
 29 32 0 0 0
SMALL
GASTEIGER

@<TRIPOS>ATOM
      1 C          63.5714   85.7361   12.9015 C.ar    1  UNL1        0.0594
      2 C          62.7622   85.8086   11.6406 C.ar    1  UNL1        0.0847
      3 N          62.4041   87.2455   11.4016 N.ar    1  UNL1       -0.2880
      4 C          62.9921   88.0611   12.5148 C.ar    1  UNL1        0.1478
      5 N          62.9637   89.5326   12.8040 N.ar    1  UNL1       -0.2264
      6 C          63.6569   90.0713   14.0203 C.ar    1  UNL1        0.1005
      7 C          64.3783   89.1385   14.9473 C.ar    1  UNL1        0.0208
      8 C          64.4067   87.6670   14.6580 C.ar    1  UNL1        0.0047
      9 C          63.7136   87.1282   13.4418 C.ar    1  UNL1        0.0391
     10 C          61.5993   87.7740   10.2514 C.ar    1  UNL1        0.0927
     11 C          61.4168   89.2531   10.0806 C.ar    1  UNL1        0.0199
     12 C          60.6121   89.7817    8.9304 C.ar    1  UNL1        0.0028
     13 C          59.9898   88.8312    7.9510 C.ar    1  UNL1        0.0163
     14 C          60.1723   87.3522    8.1217 C.ar    1  UNL1        0.0323
     15 C          60.9771   86.8236    9.2719 C.ar    1  UNL1        0.1562
     16 F          61.1595   85.3445    9.4426 F       1  UNL1       -0.2026
     17 C          59.1850   89.3597    6.8007 C.2     1  UNL1        0.0729
     18 O          59.8593   90.1318    5.7057 O.co2   1  UNL1       -0.5446
     19 O          57.7060   89.1161    6.7457 O.co2   1  UNL1       -0.5446
     20 C          64.1390   84.4903   13.5145 C.2     1  UNL1        0.1976
     21 O          65.4645   84.5358   14.2151 O.2     1  UNL1       -0.2865
     22 C          64.5330   82.6767   11.1575 C.3     1  UNL1        0.0312
     23 C          63.5780   82.2920   12.2484 C.ar    1  UNL1       -0.0179
     24 C          62.8200   81.0006   12.1608 C.ar    1  UNL1       -0.0041
     25 C          61.8651   80.6160   13.2517 C.ar    1  UNL1        0.0005
     26 C          61.6681   81.5228   14.4302 C.ar    1  UNL1        0.0115
     27 C          62.4260   82.8142   14.5179 C.ar    1  UNL1        0.0604
     28 CL         62.2290   83.7210   15.6964 Cl      1  UNL1       -0.0822
     29 C          63.3810   83.1988   13.4269 C.ar    1  UNL1        0.0456
@<TRIPOS>UNITY_ATOM_ATTR
18 1
charge -1
@<TRIPOS>BOND
     1    22    23    1
     2    23    24   ar
     3    24    25   ar
     4    25    26   ar
     5    26    27   ar
     6    27    28    1
     7    27    29   ar
     8    29    20    1
     9    20    21    2
    10    20     1    1
    11     1     2   ar
    12     2     3   ar
    13     3    10    1
    14    10    11   ar
    15    11    12   ar
    16    12    13   ar
    17    13    17    1
    18    17    18   ar
    19    17    19   ar
    20    13    14   ar
    21    14    15   ar
    22    15    16    1
    23     3     4   ar
    24     4     5   ar
    25     5     6   ar
    26     6     7   ar
    27     7     8   ar
    28     8     9   ar
    29    29    23   ar
    30     9     1   ar
    31    15    10   ar
    32     9     4   ar
@<TRIPOS>MOLECULE
*****
 29 32 0 0 0
SMALL
GASTEIGER

@<TRIPOS>ATOM
      1 C          62.5704   89.1141   11.1341 C.ar    1  UNL1        0.0594
      2 C          63.0862   87.9154   11.8738 C.ar    1  UNL1        0.0847
      3 N          62.4030   86.7001   11.3206 N.ar    1  UNL1       -0.2880
      4 C          61.4650   87.1475   10.2389 C.ar    1  UNL1        0.1478
      5 N          60.5301   86.3892    9.3441 N.ar    1  UNL1       -0.2264
      6 C          59.6986   87.1229    8.3340 C.ar    1  UNL1        0.1005
      7 C          59.8021   88.6149    8.2188 C.ar    1  UNL1        0.0208
      8 C          60.7370   89.3732    9.1136 C.ar    1  UNL1        0.0047
      9 C          61.5685   88.6395   10.1237 C.ar    1  UNL1        0.0391
     10 C          62.6198   85.2855   11.7700 C.ar    1  UNL1        0.0927
     11 C          62.3622   84.9043   13.1978 C.ar    1  UNL1        0.0199
     12 C          62.5790   83.4898   13.6473 C.ar    1  UNL1        0.0028
     13 C          63.0533   82.4563   12.6690 C.ar    1  UNL1        0.0163
     14 C          63.3108   82.8375   11.2413 C.ar    1  UNL1        0.0323
     15 C          63.0941   84.2520   10.7919 C.ar    1  UNL1        0.1562
     16 F          63.3517   84.6331    9.3640 F       1  UNL1       -0.2026
     17 C          63.2701   81.0417   13.1185 C.2     1  UNL1        0.0729
     18 O          64.0866   80.7613   14.3450 O.co2   1  UNL1       -0.5446
     19 O          62.6702   79.9077   12.3413 O.co2   1  UNL1       -0.5446
     20 C          62.9839   90.5375   11.3644 C.2     1  UNL1        0.1976
     21 O          62.5257   91.6130   10.4247 O.2     1  UNL1       -0.2865
     22 C          65.4982   92.1191   10.9438 C.3     1  UNL1        0.0312
     23 C          65.1130   91.6761   12.3241 C.ar    1  UNL1       -0.0179
     24 C          65.9848   92.0239   13.4941 C.ar    1  UNL1       -0.0041
     25 C          65.5995   91.5809   14.8744 C.ar    1  UNL1        0.0005
     26 C          64.3424   90.7901   15.0847 C.ar    1  UNL1        0.0115
     27 C          63.4705   90.4423   13.9148 C.ar    1  UNL1        0.0604
     28 CL         62.2134   89.6515   14.1251 Cl      1  UNL1       -0.0822
     29 C          63.8558   90.8853   12.5345 C.ar    1  UNL1        0.0456
@<TRIPOS>UNITY_ATOM_ATTR
18 1
charge -1
@<TRIPOS>BOND
     1    22    23    1
     2    23    24   ar
     3    24    25   ar
     4    25    26   ar
     5    26    27   ar
     6    27    28    1
     7    27    29   ar
     8    29    20    1
     9    20    21    2
    10    20     1    1
    11     1     2   ar
    12     2     3   ar
    13     3    10    1
    14    10    11   ar
    15    11    12   ar
    16    12    13   ar
    17    13    17    1
    18    17    18   ar
    19    17    19   ar
    20    13    14   ar
    21    14    15   ar
    22    15    16    1
    23     3     4   ar
    24     4     5   ar
    25     5     6   ar
    26     6     7   ar
    27     7     8   ar
    28     8     9   ar
    29    29    23   ar
    30     9     1   ar
    31    15    10   ar
    32     9     4   ar
@<TRIPOS>MOLECULE
*****
 29 32 0 0 0
SMALL
GASTEIGER

@<TRIPOS>ATOM
      1 C          63.2684   89.4802   12.6174 C.ar    1  UNL1        0.0594
      2 C          63.6902   88.1290   13.1134 C.ar    1  UNL1        0.0847
      3 N          62.9320   87.0930   12.3376 N.ar    1  UNL1       -0.2880
      4 C          62.0416   87.8039   11.3621 C.ar    1  UNL1        0.1478
      5 N          61.0683   87.2985   10.3388 N.ar    1  UNL1       -0.2264
      6 C          60.3030   88.2684    9.4883 C.ar    1  UNL1        0.1005
      7 C          60.5108   89.7439    9.6612 C.ar    1  UNL1        0.0208
      8 C          61.4841   90.2493   10.6846 C.ar    1  UNL1        0.0047
      9 C          62.2494   89.2794   11.5350 C.ar    1  UNL1        0.0391
     10 C          63.0445   85.6069   12.5075 C.ar    1  UNL1        0.0927
     11 C          62.7672   84.6963   11.3481 C.ar    1  UNL1        0.0199
     12 C          62.8797   83.2102   11.5180 C.ar    1  UNL1        0.0028
     13 C          63.2695   82.6346   12.8472 C.ar    1  UNL1        0.0163
     14 C          63.5467   83.5451   14.0065 C.ar    1  UNL1        0.0323
     15 C          63.4343   85.0312   13.8366 C.ar    1  UNL1        0.1562
     16 F          63.7116   85.9417   14.9961 F       1  UNL1       -0.2026
     17 C          63.3820   81.1485   13.0171 C.2     1  UNL1        0.0729
     18 O          62.8602   80.2302   11.9519 O.co2   1  UNL1       -0.5446
     19 O          64.0162   80.5808   14.2521 O.co2   1  UNL1       -0.5446
     20 C          63.7762   90.8006   13.1161 C.2     1  UNL1        0.1976
     21 O          63.0865   91.4868   14.2576 O.2     1  UNL1       -0.2865
     22 C          66.3601   91.0004   14.6272 C.3     1  UNL1        0.0312
     23 C          66.2660   91.5347   13.2287 C.ar    1  UNL1       -0.0179
     24 C          67.4637   92.1688   12.5859 C.ar    1  UNL1       -0.0041
     25 C          67.3694   92.7031   11.1874 C.ar    1  UNL1        0.0005
     26 C          66.0775   92.6032   10.4319 C.ar    1  UNL1        0.0115
     27 C          64.8797   91.9691   11.0747 C.ar    1  UNL1        0.0604
     28 CL         63.5878   91.8692   10.3191 Cl      1  UNL1       -0.0822
     29 C          64.9740   91.4348   12.4731 C.ar    1  UNL1        0.0456
@<TRIPOS>UNITY_ATOM_ATTR
18 1
charge -1
@<TRIPOS>BOND
     1    22    23    1
     2    23    24   ar
     3    24    25   ar
     4    25    26   ar
     5    26    27   ar
     6    27    28    1
     7    27    29   ar
     8    29    20    1
     9    20    21    2
    10    20     1    1
    11     1     2   ar
    12     2     3   ar
    13     3    10    1
    14    10    11   ar
    15    11    12   ar
    16    12    13   ar
    17    13    17    1
    18    17    18   ar
    19    17    19   ar
    20    13    14   ar
    21    14    15   ar
    22    15    16    1
    23     3     4   ar
    24     4     5   ar
    25     5     6   ar
    26     6     7   ar
    27     7     8   ar
    28     8     9   ar
    29    29    23   ar
    30     9     1   ar
    31    15    10   ar
    32     9     4   ar
@<TRIPOS>MOLECULE
*****
 29 32 0 0 0
SMALL
GASTEIGER

@<TRIPOS>ATOM
      1 C          63.5909   85.7531   12.9071 C.ar    1  UNL1        0.0594
      2 C          62.7885   85.8241   11.6418 C.ar    1  UNL1        0.0847
      3 N          62.3985   87.2554   11.4199 N.ar    1  UNL1       -0.2880
      4 C          62.9600   88.0690   12.5481 C.ar    1  UNL1        0.1478
      5 N          62.8953   89.5354   12.8572 N.ar    1  UNL1       -0.2264
      6 C          63.5677   90.0733   14.0854 C.ar    1  UNL1        0.1005
      7 C          64.3046   89.1448   15.0046 C.ar    1  UNL1        0.0208
      8 C          64.3693   87.6785   14.6955 C.ar    1  UNL1        0.0047
      9 C          63.6969   87.1406   13.4673 C.ar    1  UNL1        0.0391
     10 C          61.5892   87.7808   10.2715 C.ar    1  UNL1        0.0927
     11 C          60.5497   86.9123    9.6270 C.ar    1  UNL1        0.0199
     12 C          59.7404   87.4378    8.4786 C.ar    1  UNL1        0.0028
     13 C          59.9705   88.8317    7.9746 C.ar    1  UNL1        0.0163
     14 C          61.0100   89.7002    8.6190 C.ar    1  UNL1        0.0323
     15 C          61.8193   89.1747    9.7675 C.ar    1  UNL1        0.1562
     16 F          62.8587   90.0433   10.4119 F       1  UNL1       -0.2026
     17 C          59.1612   89.3572    6.8261 C.2     1  UNL1        0.0729
     18 O          59.8325   90.1189    5.7220 O.co2   1  UNL1       -0.5446
     19 O          57.6806   89.1209    6.7819 O.co2   1  UNL1       -0.5446
     20 C          64.1834   84.5125   13.5070 C.2     1  UNL1        0.1976
     21 O          65.5144   84.5744   14.1959 O.2     1  UNL1       -0.2865
     22 C          62.2603   83.7277   15.6716 C.3     1  UNL1        0.0312
     23 C          62.4832   82.8175   14.5004 C.ar    1  UNL1       -0.0179
     24 C          61.7447   81.5150   14.4115 C.ar    1  UNL1       -0.0041
     25 C          61.9677   80.6049   13.2402 C.ar    1  UNL1        0.0005
     26 C          62.9293   80.9973   12.1579 C.ar    1  UNL1        0.0115
     27 C          63.6678   82.2998   12.2468 C.ar    1  UNL1        0.0604
     28 CL         64.6294   82.6922   11.1645 Cl      1  UNL1       -0.0822
     29 C          63.4448   83.2099   13.4181 C.ar    1  UNL1        0.0456
@<TRIPOS>UNITY_ATOM_ATTR
18 1
charge -1
@<TRIPOS>BOND
     1    22    23    1
     2    23    24   ar
     3    24    25   ar
     4    25    26   ar
     5    26    27   ar
     6    27    28    1
     7    27    29   ar
     8    29    20    1
     9    20    21    2
    10    20     1    1
    11     1     2   ar
    12     2     3   ar
    13     3    10    1
    14    10    11   ar
    15    11    12   ar
    16    12    13   ar
    17    13    17    1
    18    17    18   ar
    19    17    19   ar
    20    13    14   ar
    21    14    15   ar
    22    15    16    1
    23     3     4   ar
    24     4     5   ar
    25     5     6   ar
    26     6     7   ar
    27     7     8   ar
    28     8     9   ar
    29    29    23   ar
    30     9     1   ar
    31    15    10   ar
    32     9     4   ar
@<TRIPOS>MOLECULE
*****
 29 32 0 0 0
SMALL
GASTEIGER

@<TRIPOS>ATOM
      1 C          63.1838   89.4776   12.6132 C.ar    1  UNL1        0.0594
      2 C          63.6243   88.1172   13.0663 C.ar    1  UNL1        0.0847
      3 N          62.8362   87.0960   12.3008 N.ar    1  UNL1       -0.2880
      4 C          61.9087   87.8251   11.3746 C.ar    1  UNL1        0.1478
      5 N          60.8962   87.3390   10.3803 N.ar    1  UNL1       -0.2264
      6 C          60.0986   88.3247    9.5791 C.ar    1  UNL1        0.1005
      7 C          60.3134   89.7967    9.7722 C.ar    1  UNL1        0.0208
      8 C          61.3258   90.2828   10.7664 C.ar    1  UNL1        0.0047
      9 C          62.1235   89.2971   11.5676 C.ar    1  UNL1        0.0391
     10 C          62.9549   85.6069   12.4376 C.ar    1  UNL1        0.0927
     11 C          62.9485   84.9758   13.7984 C.ar    1  UNL1        0.0199
     12 C          63.0671   83.4868   13.9351 C.ar    1  UNL1        0.0028
     13 C          63.1922   82.6288   12.7111 C.ar    1  UNL1        0.0163
     14 C          63.1985   83.2599   11.3504 C.ar    1  UNL1        0.0323
     15 C          63.0799   84.7489   11.2136 C.ar    1  UNL1        0.1562
     16 F          63.0863   85.3800    9.8528 F       1  UNL1       -0.2026
     17 C          63.3108   81.1398   12.8478 C.2     1  UNL1        0.0729
     18 O          62.8749   80.2464   11.7245 O.co2   1  UNL1       -0.5446
     19 O          63.8654   80.5442   14.1079 O.co2   1  UNL1       -0.5446
     20 C          63.7110   90.7883   13.1171 C.2     1  UNL1        0.1976
     21 O          63.0291   91.4820   14.2589 O.2     1  UNL1       -0.2865
     22 C          63.5694   91.7930   10.2939 C.3     1  UNL1        0.0312
     23 C          64.8495   91.9078   11.0675 C.ar    1  UNL1       -0.0179
     24 C          66.0586   92.5250   10.4295 C.ar    1  UNL1       -0.0041
     25 C          67.3385   92.6399   11.2032 C.ar    1  UNL1        0.0005
     26 C          67.4093   92.1376   12.6148 C.ar    1  UNL1        0.0115
     27 C          66.2002   91.5204   13.2528 C.ar    1  UNL1        0.0604
     28 CL         66.2709   91.0181   14.6644 Cl      1  UNL1       -0.0822
     29 C          64.9202   91.4055   12.4791 C.ar    1  UNL1        0.0456
@<TRIPOS>UNITY_ATOM_ATTR
18 1
charge -1
@<TRIPOS>BOND
     1    22    23    1
     2    23    24   ar
     3    24    25   ar
     4    25    26   ar
     5    26    27   ar
     6    27    28    1
     7    27    29   ar
     8    29    20    1
     9    20    21    2
    10    20     1    1
    11     1     2   ar
    12     2     3   ar
    13     3    10    1
    14    10    11   ar
    15    11    12   ar
    16    12    13   ar
    17    13    17    1
    18    17    18   ar
    19    17    19   ar
    20    13    14   ar
    21    14    15   ar
    22    15    16    1
    23     3     4   ar
    24     4     5   ar
    25     5     6   ar
    26     6     7   ar
    27     7     8   ar
    28     8     9   ar
    29    29    23   ar
    30     9     1   ar
    31    15    10   ar
    32     9     4   ar
@<TRIPOS>MOLECULE
*****
 29 32 0 0 0
SMALL
GASTEIGER

@<TRIPOS>ATOM
      1 C          63.0019   89.5123   11.4996 C.ar    1  UNL1        0.0594
      2 C          63.4397   88.3188   12.2959 C.ar    1  UNL1        0.0847
      3 N          62.6801   87.1252   11.7975 N.ar    1  UNL1       -0.2880
      4 C          61.7729   87.5810   10.6934 C.ar    1  UNL1        0.1478
      5 N          60.7914   86.8432    9.8318 N.ar    1  UNL1       -0.2264
      6 C          60.0088   87.5808    8.7861 C.ar    1  UNL1        0.1005
      7 C          60.2077   89.0561    8.6020 C.ar    1  UNL1        0.0208
      8 C          61.1891   89.7939    9.4636 C.ar    1  UNL1        0.0047
      9 C          61.9717   89.0563   10.5092 C.ar    1  UNL1        0.0391
     10 C          62.8057   85.7221   12.3129 C.ar    1  UNL1        0.0927
     11 C          62.2675   84.5765   11.5079 C.ar    1  UNL1        0.0199
     12 C          62.3931   83.1734   12.0233 C.ar    1  UNL1        0.0028
     13 C          63.0568   82.9159   13.3436 C.ar    1  UNL1        0.0163
     14 C          63.5949   84.0615   14.1485 C.ar    1  UNL1        0.0323
     15 C          63.4693   85.4646   13.6332 C.ar    1  UNL1        0.1562
     16 F          64.0075   86.6102   14.4382 F       1  UNL1       -0.2026
     17 C          63.1824   81.5128   13.8590 C.2     1  UNL1        0.0729
     18 O          62.0372   80.8770   14.5899 O.co2   1  UNL1       -0.5446
     19 O          64.4531   80.7457   13.6433 O.co2   1  UNL1       -0.5446
     20 C          63.5058   90.9154   11.6648 C.2     1  UNL1        0.1976
     21 O          63.1906   91.9525   10.6280 O.2     1  UNL1       -0.2865
     22 C          66.0108   92.5333   11.3369 C.3     1  UNL1        0.0312
     23 C          65.5774   92.0905   12.7030 C.ar    1  UNL1       -0.0179
     24 C          66.3965   92.4567   13.9051 C.ar    1  UNL1       -0.0041
     25 C          65.9631   92.0139   15.2711 C.ar    1  UNL1        0.0005
     26 C          64.7106   91.2049   15.4351 C.ar    1  UNL1        0.0115
     27 C          63.8914   90.8388   14.2330 C.ar    1  UNL1        0.0604
     28 CL         62.6389   90.0299   14.3970 Cl      1  UNL1       -0.0822
     29 C          64.3249   91.2816   12.8670 C.ar    1  UNL1        0.0456
@<TRIPOS>UNITY_ATOM_ATTR
18 1
charge -1
@<TRIPOS>BOND
     1    22    23    1
     2    23    24   ar
     3    24    25   ar
     4    25    26   ar
     5    26    27   ar
     6    27    28    1
     7    27    29   ar
     8    29    20    1
     9    20    21    2
    10    20     1    1
    11     1     2   ar
    12     2     3   ar
    13     3    10    1
    14    10    11   ar
    15    11    12   ar
    16    12    13   ar
    17    13    17    1
    18    17    18   ar
    19    17    19   ar
    20    13    14   ar
    21    14    15   ar
    22    15    16    1
    23     3     4   ar
    24     4     5   ar
    25     5     6   ar
    26     6     7   ar
    27     7     8   ar
    28     8     9   ar
    29    29    23   ar
    30     9     1   ar
    31    15    10   ar
    32     9     4   ar
@<TRIPOS>MOLECULE
*****
 29 32 0 0 0
SMALL
GASTEIGER

@<TRIPOS>ATOM
      1 C          63.2791   85.9485   14.0195 C.ar    1  UNL1        0.0594
      2 C          63.8384   87.1115   13.2550 C.ar    1  UNL1        0.0847
      3 N          63.9934   88.2604   14.2068 N.ar    1  UNL1       -0.2880
      4 C          63.5300   87.8075   15.5596 C.ar    1  UNL1        0.1478
      5 N          63.4530   88.5115   16.8818 N.ar    1  UNL1       -0.2264
      6 C          62.9345   87.7867   18.0883 C.ar    1  UNL1        0.1005
      7 C          62.4930   86.3578   17.9726 C.ar    1  UNL1        0.0208
      8 C          62.5700   85.6537   16.6504 C.ar    1  UNL1        0.0047
      9 C          63.0885   86.3786   15.4439 C.ar    1  UNL1        0.0391
     10 C          64.5195   89.6231   13.8657 C.ar    1  UNL1        0.0927
     11 C          65.6153   90.2319   14.6897 C.ar    1  UNL1        0.0199
     12 C          66.1414   91.5946   14.3486 C.ar    1  UNL1        0.0028
     13 C          65.5719   92.3485   13.1836 C.ar    1  UNL1        0.0163
     14 C          64.4762   91.7397   12.3597 C.ar    1  UNL1        0.0323
     15 C          63.9500   90.3770   12.7008 C.ar    1  UNL1        0.1562
     16 F          62.8543   89.7683   11.8768 F       1  UNL1       -0.2026
     17 C          66.0980   93.7111   12.8425 C.2     1  UNL1        0.0729
     18 O          66.4934   94.6580   13.9367 O.co2   1  UNL1       -0.5446
     19 O          66.2287   94.1269   11.4073 O.co2   1  UNL1       -0.5446
     20 C          62.9655   84.5932   13.4583 C.2     1  UNL1        0.1976
     21 O          62.4073   83.5234   14.3492 O.2     1  UNL1       -0.2865
     22 C          61.4761   86.1301   11.3560 C.3     1  UNL1        0.0312
     23 C          62.4655   85.0763   10.9549 C.ar    1  UNL1       -0.0179
     24 C          62.7100   84.7909    9.5028 C.ar    1  UNL1       -0.0041
     25 C          63.6993   83.7371    9.1019 C.ar    1  UNL1        0.0005
     26 C          64.4440   82.9687   10.1530 C.ar    1  UNL1        0.0115
     27 C          64.1995   83.2540   11.6052 C.ar    1  UNL1        0.0604
     28 CL         64.9441   82.4856   12.6563 Cl      1  UNL1       -0.0822
     29 C          63.2101   84.3078   12.0061 C.ar    1  UNL1        0.0456
@<TRIPOS>UNITY_ATOM_ATTR
18 1
charge -1
@<TRIPOS>BOND
     1    22    23    1
     2    23    24   ar
     3    24    25   ar
     4    25    26   ar
     5    26    27   ar
     6    27    28    1
     7    27    29   ar
     8    29    20    1
     9    20    21    2
    10    20     1    1
    11     1     2   ar
    12     2     3   ar
    13     3    10    1
    14    10    11   ar
    15    11    12   ar
    16    12    13   ar
    17    13    17    1
    18    17    18   ar
    19    17    19   ar
    20    13    14   ar
    21    14    15   ar
    22    15    16    1
    23     3     4   ar
    24     4     5   ar
    25     5     6   ar
    26     6     7   ar
    27     7     8   ar
    28     8     9   ar
    29    29    23   ar
    30     9     1   ar
    31    15    10   ar
    32     9     4   ar
