@<TRIPOS>MOLECULE
*****
 26 28 0 0 0
SMALL
GASTEIGER

@<TRIPOS>ATOM
      1 C          64.3634   84.7292   15.0464 C.3     1  UNL1        0.0630
      2 C          63.8800   88.6658   15.1855 C.ar    1  UNL1        0.2375
      3 N          63.1650   88.8175   16.4953 N.ar    1  UNL1       -0.2095
      4 C          62.8495   87.6065   17.3222 C.ar    1  UNL1        0.1033
      5 C          63.2490   86.2437   16.8392 C.ar    1  UNL1        0.0356
      6 C          63.9639   86.0920   15.5293 C.ar    1  UNL1        0.0650
      7 N          64.2794   87.3030   14.7025 N.ar    1  UNL1       -0.2154
      8 C          62.9689   89.1670   12.0921 C.3     1  UNL1        0.0522
      9 C          63.7767   90.1072   12.9367 C.ar    1  UNL1        0.0650
     10 C          64.3076   91.4429   12.5077 C.ar    1  UNL1        0.1138
     11 N          65.0546   92.0381   13.6644 N.ar    1  UNL1       -0.2223
     12 C          64.9852   91.0703   14.8083 C.ar    1  UNL1        0.1848
     13 N          64.1955   89.8769   14.3585 N.ar    1  UNL1       -0.2611
     14 C          63.3683   83.6069   15.0606 C.3     1  UNL1        0.0749
     15 N          63.7389   82.2686   14.4936 N.3     1  UNL1       -0.2971
     16 H          63.8899   81.6446   15.2861 H       1  UNL1        0.1233
     17 C          62.8001   81.5636   13.5599 C.3     1  UNL1        0.0689
     18 C          63.0044   81.6596   12.0770 C.3     1  UNL1        0.0218
     19 C          63.8811   82.7359   11.5088 C.3     1  UNL1        0.0278
     20 C          63.2701   83.8849   10.7628 C.ar    1  UNL1       -0.0199
     21 C          63.6513   84.1393    9.3344 C.ar    1  UNL1       -0.0041
     22 C          63.0403   85.2882    8.5884 C.ar    1  UNL1        0.0020
     23 C          62.0481   86.1828    9.2707 C.ar    1  UNL1        0.0296
     24 C          61.6670   85.9284   10.6989 C.ar    1  UNL1        0.1398
     25 F          60.6749   86.8230   11.3812 F       1  UNL1       -0.2042
     26 C          62.2780   84.7794   11.4450 C.ar    1  UNL1        0.0254
@<TRIPOS>BOND
     1     8     9    1
     2     9    10   ar
     3    10    11   ar
     4    11    12   ar
     5    12    13   ar
     6    13     2    1
     7     2     3   ar
     8     3     4   ar
     9     4     5   ar
    10     5     6   ar
    11     6     1    1
    12     1    14    1
    13    14    15    1
    14    15    17    1
    15    17    18    1
    16    18    19    1
    17    19    20    1
    18    20    21   ar
    19    21    22   ar
    20    22    23   ar
    21    23    24   ar
    22    24    25    1
    23    24    26   ar
    24     6     7   ar
    25    13     9   ar
    26     7     2   ar
    27    26    20   ar
    28    15    16    1
@<TRIPOS>MOLECULE
*****
 26 28 0 0 0
SMALL
GASTEIGER

@<TRIPOS>ATOM
      1 C          63.5970   90.5663   13.6384 C.3     1  UNL1        0.0630
      2 C          66.3988   92.9105   12.0878 C.ar    1  UNL1        0.2375
      3 N          67.4807   92.7790   13.1183 N.ar    1  UNL1       -0.2095
      4 C          67.2681   91.9099   14.3222 C.ar    1  UNL1        0.1033
      5 C          65.9735   91.1723   14.4956 C.ar    1  UNL1        0.0356
      6 C          64.8916   91.3038   13.4650 C.ar    1  UNL1        0.0650
      7 N          65.1042   92.1730   12.2611 N.ar    1  UNL1       -0.2154
      8 C          68.3057   92.2151    9.5324 C.3     1  UNL1        0.0522
      9 C          67.4879   93.4600    9.7093 C.ar    1  UNL1        0.0650
     10 C          67.4030   94.6038    8.7426 C.ar    1  UNL1        0.1138
     11 N          66.4740   95.6305    9.3197 N.ar    1  UNL1       -0.2223
     12 C          65.9848   95.1211   10.6430 C.ar    1  UNL1        0.1848
     13 N          66.6114   93.7797   10.8838 N.ar    1  UNL1       -0.2611
     14 C          63.2753   89.3979   12.7544 C.3     1  UNL1        0.0749
     15 N          63.6888   88.0143   13.1600 N.3     1  UNL1       -0.2971
     16 H          64.3701   87.6965   12.4706 H       1  UNL1        0.1233
     17 C          64.2976   87.7791   14.5107 C.3     1  UNL1        0.0689
     18 C          64.7709   86.4076   14.8914 C.3     1  UNL1        0.0218
     19 C          63.7859   85.3764   15.3564 C.3     1  UNL1        0.0278
     20 C          63.3515   84.2816   14.4275 C.ar    1  UNL1       -0.0199
     21 C          63.7734   84.3077   12.9883 C.ar    1  UNL1       -0.0041
     22 C          63.3390   83.2130   12.0594 C.ar    1  UNL1        0.0020
     23 C          62.4826   82.0921   12.5698 C.ar    1  UNL1        0.0296
     24 C          62.0608   82.0660   14.0090 C.ar    1  UNL1        0.1398
     25 F          61.2045   80.9451   14.5194 F       1  UNL1       -0.2042
     26 C          62.4952   83.1608   14.9379 C.ar    1  UNL1        0.0254
@<TRIPOS>BOND
     1     8     9    1
     2     9    10   ar
     3    10    11   ar
     4    11    12   ar
     5    12    13   ar
     6    13     2    1
     7     2     3   ar
     8     3     4   ar
     9     4     5   ar
    10     5     6   ar
    11     6     1    1
    12     1    14    1
    13    14    15    1
    14    15    17    1
    15    17    18    1
    16    18    19    1
    17    19    20    1
    18    20    21   ar
    19    21    22   ar
    20    22    23   ar
    21    23    24   ar
    22    24    25    1
    23    24    26   ar
    24     6     7   ar
    25    13     9   ar
    26     7     2   ar
    27    26    20   ar
    28    15    16    1
@<TRIPOS>MOLECULE
*****
 26 28 0 0 0
SMALL
GASTEIGER

@<TRIPOS>ATOM
      1 C          63.5750   90.6639   13.6766 C.3     1  UNL1        0.0630
      2 C          66.4340   92.9018   12.0743 C.ar    1  UNL1        0.2375
      3 N          67.5340   92.7174   13.0773 N.ar    1  UNL1       -0.2095
      4 C          67.3143   91.8485   14.2801 C.ar    1  UNL1        0.1033
      5 C          65.9946   91.1640   14.4798 C.ar    1  UNL1        0.0356
      6 C          64.8946   91.3484   13.4769 C.ar    1  UNL1        0.0650
      7 N          65.1143   92.2173   12.2741 N.ar    1  UNL1       -0.2154
      8 C          68.3022   92.1760    9.4989 C.3     1  UNL1        0.0522
      9 C          67.5124   93.4372    9.6878 C.ar    1  UNL1        0.0650
     10 C          67.4426   94.5861    8.7259 C.ar    1  UNL1        0.1138
     11 N          66.5407   95.6299    9.3153 N.ar    1  UNL1       -0.2223
     12 C          66.0532   95.1260   10.6413 C.ar    1  UNL1        0.1848
     13 N          66.6537   93.7708   10.8715 N.ar    1  UNL1       -0.2611
     14 C          62.9271   89.9365   12.5360 C.3     1  UNL1        0.0749
     15 N          61.4364   89.7737   12.5002 N.3     1  UNL1       -0.2971
     16 H          61.0360   90.6585   12.8118 H       1  UNL1        0.1233
     17 C          60.7515   89.4174   11.2141 C.3     1  UNL1        0.0689
     18 C          61.5597   88.9635   10.0348 C.3     1  UNL1        0.0218
     19 C          61.2089   87.6854    9.3324 C.3     1  UNL1        0.0278
     20 C          61.9333   86.4176    9.6759 C.ar    1  UNL1       -0.0199
     21 C          62.7301   85.7011    8.6263 C.ar    1  UNL1       -0.0041
     22 C          63.4545   84.4333    8.9698 C.ar    1  UNL1        0.0020
     23 C          63.3820   83.8820   10.3630 C.ar    1  UNL1        0.0296
     24 C          62.5853   84.5986   11.4126 C.ar    1  UNL1        0.1398
     25 F          62.5128   84.0474   12.8058 F       1  UNL1       -0.2042
     26 C          61.8609   85.8664   11.0691 C.ar    1  UNL1        0.0254
@<TRIPOS>BOND
     1     8     9    1
     2     9    10   ar
     3    10    11   ar
     4    11    12   ar
     5    12    13   ar
     6    13     2    1
     7     2     3   ar
     8     3     4   ar
     9     4     5   ar
    10     5     6   ar
    11     6     1    1
    12     1    14    1
    13    14    15    1
    14    15    17    1
    15    17    18    1
    16    18    19    1
    17    19    20    1
    18    20    21   ar
    19    21    22   ar
    20    22    23   ar
    21    23    24   ar
    22    24    25    1
    23    24    26   ar
    24     6     7   ar
    25    13     9   ar
    26     7     2   ar
    27    26    20   ar
    28    15    16    1
@<TRIPOS>MOLECULE
*****
 26 28 0 0 0
SMALL
GASTEIGER

@<TRIPOS>ATOM
      1 C          63.5002   90.5099   13.4617 C.3     1  UNL1        0.0630
      2 C          66.4272   92.8685   12.1890 C.ar    1  UNL1        0.2375
      3 N          67.2061   93.0625   13.4560 N.ar    1  UNL1       -0.2095
      4 C          66.7498   92.4057   14.7250 C.ar    1  UNL1        0.1033
      5 C          65.5145   91.5548   14.7268 C.ar    1  UNL1        0.0356
      6 C          64.7355   91.3607   13.4598 C.ar    1  UNL1        0.0650
      7 N          65.1918   92.0176   12.1908 N.ar    1  UNL1       -0.2154
      8 C          66.0407   96.0141   11.4107 C.3     1  UNL1        0.0522
      9 C          66.7058   94.9711   10.5622 C.ar    1  UNL1        0.0650
     10 C          67.3101   95.1910    9.2070 C.ar    1  UNL1        0.1138
     11 N          67.8613   93.8810    8.7272 N.ar    1  UNL1       -0.2223
     12 C          67.5976   92.8516    9.7858 C.ar    1  UNL1        0.1848
     13 N          66.8835   93.5253   10.9199 N.ar    1  UNL1       -0.2611
     14 C          63.4730   89.2255   12.6874 C.3     1  UNL1        0.0749
     15 N          62.2401   88.8332   11.9285 N.3     1  UNL1       -0.2971
     16 H          61.5300   89.5351   12.1372 H       1  UNL1        0.1233
     17 C          62.2897   88.6981   10.4353 C.3     1  UNL1        0.0689
     18 C          61.9069   87.4010    9.7865 C.3     1  UNL1        0.0218
     19 C          61.5136   86.2266   10.6326 C.3     1  UNL1        0.0278
     20 C          62.5110   85.1449   10.9245 C.ar    1  UNL1       -0.0199
     21 C          63.1277   84.3695    9.7981 C.ar    1  UNL1       -0.0041
     22 C          64.1252   83.2879   10.0900 C.ar    1  UNL1        0.0020
     23 C          64.5059   82.9817   11.5083 C.ar    1  UNL1        0.0296
     24 C          63.8893   83.7571   12.6345 C.ar    1  UNL1        0.1398
     25 F          64.2701   83.4509   14.0528 F       1  UNL1       -0.2042
     26 C          62.8918   84.8387   12.3426 C.ar    1  UNL1        0.0254
@<TRIPOS>BOND
     1     8     9    1
     2     9    10   ar
     3    10    11   ar
     4    11    12   ar
     5    12    13   ar
     6    13     2    1
     7     2     3   ar
     8     3     4   ar
     9     4     5   ar
    10     5     6   ar
    11     6     1    1
    12     1    14    1
    13    14    15    1
    14    15    17    1
    15    17    18    1
    16    18    19    1
    17    19    20    1
    18    20    21   ar
    19    21    22   ar
    20    22    23   ar
    21    23    24   ar
    22    24    25    1
    23    24    26   ar
    24     6     7   ar
    25    13     9   ar
    26     7     2   ar
    27    26    20   ar
    28    15    16    1
@<TRIPOS>MOLECULE
*****
 26 28 0 0 0
SMALL
GASTEIGER

@<TRIPOS>ATOM
      1 C          64.5767   85.7474   15.0976 C.3     1  UNL1        0.0630
      2 C          62.5233   85.3054   11.7304 C.ar    1  UNL1        0.2375
      3 N          62.6298   83.8233   11.5259 N.ar    1  UNL1       -0.2095
      4 C          63.3853   82.9825   12.5119 C.ar    1  UNL1        0.1033
      5 C          64.0343   83.6239   13.7025 C.ar    1  UNL1        0.0356
      6 C          63.9277   85.1061   13.9070 C.ar    1  UNL1        0.0650
      7 N          63.1722   85.9468   12.9210 N.ar    1  UNL1       -0.2154
      8 C          62.9619   85.3295    8.4967 C.3     1  UNL1        0.0522
      9 C          61.9694   86.1573    9.2580 C.ar    1  UNL1        0.0650
     10 C          61.0042   87.1415    8.6666 C.ar    1  UNL1        0.1138
     11 N          60.2060   87.7387    9.7875 N.ar    1  UNL1       -0.2223
     12 C          60.6779   87.1236   11.0716 C.ar    1  UNL1        0.1848
     13 N          61.7677   86.1462   10.7443 N.ar    1  UNL1       -0.2611
     14 C          63.8302   85.8491   16.3946 C.3     1  UNL1        0.0749
     15 N          62.7575   86.8839   16.5635 N.3     1  UNL1       -0.2971
     16 H          62.0694   86.4925   17.2068 H       1  UNL1        0.1233
     17 C          63.1062   88.2483   17.0801 C.3     1  UNL1        0.0689
     18 C          63.3383   89.3771   16.1198 C.3     1  UNL1        0.0218
     19 C          64.0251   89.1195   14.8114 C.3     1  UNL1        0.0278
     20 C          64.5165   90.2694   13.9831 C.ar    1  UNL1       -0.0199
     21 C          63.8628   90.5808   12.6694 C.ar    1  UNL1       -0.0041
     22 C          64.3542   91.7307   11.8411 C.ar    1  UNL1        0.0020
     23 C          65.4993   92.5694   12.3265 C.ar    1  UNL1        0.0296
     24 C          66.1529   92.2580   13.6402 C.ar    1  UNL1        0.1398
     25 F          67.2979   93.0967   14.1257 F       1  UNL1       -0.2042
     26 C          65.6615   91.1081   14.4685 C.ar    1  UNL1        0.0254
@<TRIPOS>BOND
     1     8     9    1
     2     9    10   ar
     3    10    11   ar
     4    11    12   ar
     5    12    13   ar
     6    13     2    1
     7     2     3   ar
     8     3     4   ar
     9     4     5   ar
    10     5     6   ar
    11     6     1    1
    12     1    14    1
    13    14    15    1
    14    15    17    1
    15    17    18    1
    16    18    19    1
    17    19    20    1
    18    20    21   ar
    19    21    22   ar
    20    22    23   ar
    21    23    24   ar
    22    24    25    1
    23    24    26   ar
    24     6     7   ar
    25    13     9   ar
    26     7     2   ar
    27    26    20   ar
    28    15    16    1
@<TRIPOS>MOLECULE
*****
 26 28 0 0 0
SMALL
GASTEIGER

@<TRIPOS>ATOM
      1 C          63.9157   88.8105   14.1219 C.3     1  UNL1        0.0630
      2 C          62.1085   89.0626   10.5976 C.ar    1  UNL1        0.2375
      3 N          62.5387   90.4299   10.1556 N.ar    1  UNL1       -0.2095
      4 C          63.4279   91.2573   11.0356 C.ar    1  UNL1        0.1033
      5 C          63.8869   90.7176   12.3577 C.ar    1  UNL1        0.0356
      6 C          63.4567   89.3503   12.7998 C.ar    1  UNL1        0.0650
      7 N          62.5675   88.5228   11.9197 N.ar    1  UNL1       -0.2154
      8 C          62.3175   85.8367   10.1502 C.3     1  UNL1        0.0522
      9 C          61.3153   86.7523    9.5119 C.ar    1  UNL1        0.0650
     10 C          60.2332   86.3458    8.5559 C.ar    1  UNL1        0.1138
     11 N          59.4684   87.5774    8.1707 N.ar    1  UNL1       -0.2223
     12 C          60.0778   88.7449    8.8886 C.ar    1  UNL1        0.1848
     13 N          61.2192   88.2350    9.7176 N.ar    1  UNL1       -0.2611
     14 C          63.6173   89.5640   15.3840 C.3     1  UNL1        0.0749
     15 N          62.6476   89.0026   16.3813 N.3     1  UNL1       -0.2971
     16 H          61.8352   88.6826   15.8541 H       1  UNL1        0.1233
     17 C          63.0602   87.8683   17.2719 C.3     1  UNL1        0.0689
     18 C          62.8329   86.4512   16.8356 C.3     1  UNL1        0.0218
     19 C          63.9413   85.6810   16.1813 C.3     1  UNL1        0.0278
     20 C          63.6268   84.6726   15.1162 C.ar    1  UNL1       -0.0199
     21 C          64.3285   84.7369   13.7920 C.ar    1  UNL1       -0.0041
     22 C          64.0141   83.7286   12.7269 C.ar    1  UNL1        0.0020
     23 C          62.9979   82.6560   12.9861 C.ar    1  UNL1        0.0296
     24 C          62.2963   82.5918   14.3102 C.ar    1  UNL1        0.1398
     25 F          61.2801   81.5192   14.5694 F       1  UNL1       -0.2042
     26 C          62.6107   83.6001   15.3753 C.ar    1  UNL1        0.0254
@<TRIPOS>BOND
     1     8     9    1
     2     9    10   ar
     3    10    11   ar
     4    11    12   ar
     5    12    13   ar
     6    13     2    1
     7     2     3   ar
     8     3     4   ar
     9     4     5   ar
    10     5     6   ar
    11     6     1    1
    12     1    14    1
    13    14    15    1
    14    15    17    1
    15    17    18    1
    16    18    19    1
    17    19    20    1
    18    20    21   ar
    19    21    22   ar
    20    22    23   ar
    21    23    24   ar
    22    24    25    1
    23    24    26   ar
    24     6     7   ar
    25    13     9   ar
    26     7     2   ar
    27    26    20   ar
    28    15    16    1
@<TRIPOS>MOLECULE
*****
 26 28 0 0 0
SMALL
GASTEIGER

@<TRIPOS>ATOM
      1 C          64.0629   85.9965   16.0161 C.3     1  UNL1        0.0630
      2 C          62.8248   84.4234   12.5893 C.ar    1  UNL1        0.2375
      3 N          62.3897   83.0616   13.0434 N.ar    1  UNL1       -0.2095
      4 C          62.5123   82.6781   14.4883 C.ar    1  UNL1        0.1033
      5 C          63.0701   83.6564   15.4792 C.ar    1  UNL1        0.0356
      6 C          63.5052   85.0182   15.0252 C.ar    1  UNL1        0.0650
      7 N          63.3826   85.4017   13.5802 N.ar    1  UNL1       -0.2154
      8 C          64.4469   83.0711   10.1014 C.3     1  UNL1        0.0522
      9 C          63.4478   84.1853   10.0008 C.ar    1  UNL1        0.0650
     10 C          63.0189   84.8737    8.7390 C.ar    1  UNL1        0.1138
     11 N          62.0081   85.9207    9.1027 N.ar    1  UNL1       -0.2223
     12 C          61.8125   85.8794   10.5893 C.ar    1  UNL1        0.1848
     13 N          62.7022   84.8069   11.1444 N.ar    1  UNL1       -0.2611
     14 C          63.1542   86.6593   17.0085 C.3     1  UNL1        0.0749
     15 N          62.4825   87.9549   16.6617 N.3     1  UNL1       -0.2971
     16 H          61.6703   88.0383   17.2730 H       1  UNL1        0.1233
     17 C          63.2402   89.2450   16.7699 C.3     1  UNL1        0.0689
     18 C          63.8106   89.8853   15.5392 C.3     1  UNL1        0.0218
     19 C          63.9381   89.0929   14.2720 C.3     1  UNL1        0.0278
     20 C          63.6979   89.7536   12.9469 C.ar    1  UNL1       -0.0199
     21 C          64.3376   91.0755   12.6411 C.ar    1  UNL1       -0.0041
     22 C          64.0975   91.7363   11.3161 C.ar    1  UNL1        0.0020
     23 C          63.2177   91.0751   10.2968 C.ar    1  UNL1        0.0296
     24 C          62.5780   89.7533   10.6026 C.ar    1  UNL1        0.1398
     25 F          61.6982   89.0921    9.5834 F       1  UNL1       -0.2042
     26 C          62.8182   89.0925   11.9277 C.ar    1  UNL1        0.0254
@<TRIPOS>BOND
     1     8     9    1
     2     9    10   ar
     3    10    11   ar
     4    11    12   ar
     5    12    13   ar
     6    13     2    1
     7     2     3   ar
     8     3     4   ar
     9     4     5   ar
    10     5     6   ar
    11     6     1    1
    12     1    14    1
    13    14    15    1
    14    15    17    1
    15    17    18    1
    16    18    19    1
    17    19    20    1
    18    20    21   ar
    19    21    22   ar
    20    22    23   ar
    21    23    24   ar
    22    24    25    1
    23    24    26   ar
    24     6     7   ar
    25    13     9   ar
    26     7     2   ar
    27    26    20   ar
    28    15    16    1
@<TRIPOS>MOLECULE
*****
 26 28 0 0 0
SMALL
GASTEIGER

@<TRIPOS>ATOM
      1 C          60.3131   87.6615   10.1292 C.3     1  UNL1        0.0630
      2 C          62.6195   84.8354   11.6924 C.ar    1  UNL1        0.2375
      3 N          63.3436   84.3525   10.4707 N.ar    1  UNL1       -0.2095
      4 C          63.0574   84.9725    9.1352 C.ar    1  UNL1        0.1033
      5 C          62.0473   86.0756    9.0214 C.ar    1  UNL1        0.0356
      6 C          61.3233   86.5585   10.2430 C.ar    1  UNL1        0.0650
      7 N          61.6094   85.9384   11.5785 N.ar    1  UNL1       -0.2154
      8 C          64.1292   86.2848   14.1964 C.3     1  UNL1        0.0522
      9 C          63.5995   84.8815   14.1789 C.ar    1  UNL1        0.0650
     10 C          63.6708   83.8981   15.3093 C.ar    1  UNL1        0.1138
     11 N          63.0209   82.6240   14.8569 N.ar    1  UNL1       -0.2223
     12 C          62.5481   82.8201   13.4470 C.ar    1  UNL1        0.1848
     13 N          62.9056   84.2153   13.0279 N.ar    1  UNL1       -0.2611
     14 C          60.6161   88.8732    9.2986 C.3     1  UNL1        0.0749
     15 N          60.7637   90.2142    9.9543 N.3     1  UNL1       -0.2971
     16 H          59.8230   90.5918   10.0675 H       1  UNL1        0.1233
     17 C          61.4388   90.3261   11.2891 C.3     1  UNL1        0.0689
     18 C          62.9319   90.2189   11.3858 C.3     1  UNL1        0.0218
     19 C          63.5947   90.1694   12.7305 C.3     1  UNL1        0.0278
     20 C          64.6629   91.1637   13.0771 C.ar    1  UNL1       -0.0199
     21 C          64.9781   92.2858   12.1328 C.ar    1  UNL1       -0.0041
     22 C          66.0463   93.2802   12.4795 C.ar    1  UNL1        0.0020
     23 C          66.7993   93.1525   13.7705 C.ar    1  UNL1        0.0296
     24 C          66.4841   92.0305   14.7148 C.ar    1  UNL1        0.1398
     25 F          67.2371   91.9028   16.0058 F       1  UNL1       -0.2042
     26 C          65.4159   91.0361   14.3681 C.ar    1  UNL1        0.0254
@<TRIPOS>BOND
     1     8     9    1
     2     9    10   ar
     3    10    11   ar
     4    11    12   ar
     5    12    13   ar
     6    13     2    1
     7     2     3   ar
     8     3     4   ar
     9     4     5   ar
    10     5     6   ar
    11     6     1    1
    12     1    14    1
    13    14    15    1
    14    15    17    1
    15    17    18    1
    16    18    19    1
    17    19    20    1
    18    20    21   ar
    19    21    22   ar
    20    22    23   ar
    21    23    24   ar
    22    24    25    1
    23    24    26   ar
    24     6     7   ar
    25    13     9   ar
    26     7     2   ar
    27    26    20   ar
    28    15    16    1
@<TRIPOS>MOLECULE
*****
 26 28 0 0 0
SMALL
GASTEIGER

@<TRIPOS>ATOM
      1 C          63.7260   81.9922   10.3799 C.3     1  UNL1        0.0630
      2 C          62.8855   82.9741   14.1321 C.ar    1  UNL1        0.2375
      3 N          62.3475   81.6739   14.6517 N.ar    1  UNL1       -0.2095
      4 C          62.2690   80.4798   13.7473 C.ar    1  UNL1        0.1033
      5 C          62.7285   80.5859   12.3234 C.ar    1  UNL1        0.0356
      6 C          63.2665   81.8861   11.8038 C.ar    1  UNL1        0.0650
      7 N          63.3450   83.0802   12.7082 N.ar    1  UNL1       -0.2154
      8 C          65.4727   84.9267   14.5109 C.3     1  UNL1        0.0522
      9 C          64.1532   85.0657   15.2106 C.ar    1  UNL1        0.0650
     10 C          63.7913   86.1267   16.2072 C.ar    1  UNL1        0.1138
     11 N          62.3783   85.8850   16.6491 N.ar    1  UNL1       -0.2223
     12 C          61.8671   84.6746   15.9255 C.ar    1  UNL1        0.1848
     13 N          62.9640   84.1683   15.0365 N.ar    1  UNL1       -0.2611
     14 C          64.2155   83.3055    9.8456 C.3     1  UNL1        0.0749
     15 N          63.3016   84.4948    9.8263 N.3     1  UNL1       -0.2971
     16 H          63.7191   85.1970   10.4371 H       1  UNL1        0.1233
     17 C          62.9897   85.1800    8.5288 C.3     1  UNL1        0.0689
     18 C          61.7086   85.9445    8.3735 C.3     1  UNL1        0.0218
     19 C          60.9449   86.3831    9.5877 C.3     1  UNL1        0.0278
     20 C          61.0827   87.7887   10.0932 C.ar    1  UNL1       -0.0199
     21 C          62.3993   88.4992    9.9844 C.ar    1  UNL1       -0.0041
     22 C          62.5371   89.9047   10.4898 C.ar    1  UNL1        0.0020
     23 C          61.3582   90.5998   11.1040 C.ar    1  UNL1        0.0296
     24 C          60.0417   89.8893   11.2128 C.ar    1  UNL1        0.1398
     25 F          58.8628   90.5843   11.8270 F       1  UNL1       -0.2042
     26 C          59.9039   88.4837   10.7074 C.ar    1  UNL1        0.0254
@<TRIPOS>BOND
     1     8     9    1
     2     9    10   ar
     3    10    11   ar
     4    11    12   ar
     5    12    13   ar
     6    13     2    1
     7     2     3   ar
     8     3     4   ar
     9     4     5   ar
    10     5     6   ar
    11     6     1    1
    12     1    14    1
    13    14    15    1
    14    15    17    1
    15    17    18    1
    16    18    19    1
    17    19    20    1
    18    20    21   ar
    19    21    22   ar
    20    22    23   ar
    21    23    24   ar
    22    24    25    1
    23    24    26   ar
    24     6     7   ar
    25    13     9   ar
    26     7     2   ar
    27    26    20   ar
    28    15    16    1
