@<TRIPOS>MOLECULE
*****
 35 38 0 0 0
SMALL
GASTEIGER

@<TRIPOS>ATOM
      1 N          62.8506   90.7799   11.6634 N.am    1  UNL1       -0.2438
      2 C          63.3336   91.4340   10.4030 C.3     1  UNL1        0.1009
      3 C          64.4984   92.3781   10.4467 C.3     1  UNL1        0.0661
      4 C          65.1803   92.6679   11.7509 C.3     1  UNL1        0.1578
      5 O          64.6973   92.0138   13.0115 O.3     1  UNL1       -0.4375
      6 C          63.5325   91.0698   12.9677 C.2     1  UNL1        0.4051
      7 O          63.0495   90.4156   14.2282 O.2     1  UNL1       -0.2262
      8 C          65.9989   93.5263   10.8326 C.ar    1  UNL1        0.0139
      9 C          65.6619   94.9782   10.6643 C.ar    1  UNL1        0.0014
     10 C          66.4804   95.8366    9.7460 C.ar    1  UNL1        0.0294
     11 C          67.6359   95.2430    8.9961 C.ar    1  UNL1        0.1401
     12 F          68.4544   96.1013    8.0778 F       1  UNL1       -0.2042
     13 C          67.9729   93.7910    9.1644 C.ar    1  UNL1        0.0294
     14 C          67.1543   92.9327   10.0827 C.ar    1  UNL1        0.0014
     15 C          60.2861   90.3733   11.5730 C.3     1  UNL1        0.0265
     16 C          61.6857   89.8359   11.6197 C.3     1  UNL1        0.1011
     17 C          61.9205   88.3543   11.6226 C.ar    1  UNL1       -0.0042
     18 C          63.0290   87.7723   12.4487 C.ar    1  UNL1       -0.0027
     19 C          63.2637   86.2908   12.4516 C.ar    1  UNL1       -0.0002
     20 C          62.3900   85.3913   11.6285 C.ar    1  UNL1        0.0021
     21 C          61.2815   85.9734   10.8024 C.ar    1  UNL1       -0.0002
     22 C          61.0468   87.4549   10.7995 C.ar    1  UNL1       -0.0027
     23 C          62.6248   83.9098   11.6314 C.ar    1  UNL1        0.0276
     24 C          62.1765   83.0817   12.7990 C.ar    1  UNL1        0.0045
     25 C          62.4113   81.6001   12.8019 C.ar    1  UNL1        0.0298
     26 C          63.0944   80.9467   11.6372 C.ar    1  UNL1        0.1424
     27 F          63.3292   79.4653   11.6401 F       1  UNL1       -0.2041
     28 C          63.5427   81.7749   10.4696 C.ar    1  UNL1        0.0592
     29 C          63.3079   83.2564   10.4667 C.ar    1  UNL1        0.1423
     30 F          63.7562   84.0846    9.2991 F       1  UNL1       -0.2041
     31 C          66.1465   93.2559   12.7362 C.3     1  UNL1        0.0471
     32 C          66.5626   92.4659   13.9414 C.3     1  UNL1        0.0357
     33 C          68.0029   92.0932   14.1333 C.3     1  UNL1        0.1373
     34 O          68.8175   91.6216   12.9654 O.3     1  UNL1       -0.3820
     35 H          68.4705   90.7721   12.6511 H       1  UNL1        0.2104
@<TRIPOS>BOND
     1    16    15    1
     2    16    17    1
     3    17    18   ar
     4    18    19   ar
     5    19    20   ar
     6    20    23    1
     7    23    24   ar
     8    24    25   ar
     9    25    26   ar
    10    26    27    1
    11    26    28   ar
    12    28    29   ar
    13    29    30    1
    14    20    21   ar
    15    21    22   ar
    16    16     1    1
    17     1     2    1
    18     2     3    1
    19     3     4    1
    20     4    31    1
    21    31    32    1
    22    32    33    1
    23    33    34    1
    24     4     8    1
    25     8     9   ar
    26     9    10   ar
    27    10    11   ar
    28    11    12    1
    29    11    13   ar
    30    13    14   ar
    31     4     5    1
    32     5     6    1
    33     6     7    2
    34    22    17   ar
    35     6     1   am
    36    29    23   ar
    37    14     8   ar
    38    34    35    1
@<TRIPOS>MOLECULE
*****
 35 38 0 0 0
SMALL
GASTEIGER

@<TRIPOS>ATOM
      1 N          63.3375   90.5174   11.8885 N.am    1  UNL1       -0.2438
      2 C          64.0777   90.4521   13.1914 C.3     1  UNL1        0.1009
      3 C          65.2797   91.3211   13.4155 C.3     1  UNL1        0.0661
      4 C          65.7414   92.2554   12.3367 C.3     1  UNL1        0.1578
      5 O          65.0011   92.3206   11.0336 O.3     1  UNL1       -0.4375
      6 C          63.7992   91.4516   10.8095 C.2     1  UNL1        0.4051
      7 O          63.0590   91.5169    9.5066 O.2     1  UNL1       -0.2262
      8 C          66.7655   92.5501   13.3923 C.ar    1  UNL1        0.0139
      9 C          68.0686   91.8072   13.4013 C.ar    1  UNL1        0.0014
     10 C          69.0927   92.1020   14.4569 C.ar    1  UNL1        0.0294
     11 C          68.8137   93.1396   15.5035 C.ar    1  UNL1        0.1401
     12 F          69.8378   93.4344   16.5591 F       1  UNL1       -0.2042
     13 C          67.5106   93.8825   15.4945 C.ar    1  UNL1        0.0294
     14 C          66.4865   93.5878   14.4389 C.ar    1  UNL1        0.0014
     15 C          60.8148   90.2697   11.3188 C.3     1  UNL1        0.0265
     16 C          62.1356   89.6484   11.6644 C.3     1  UNL1        0.1011
     17 C          62.2545   88.1580   11.7858 C.ar    1  UNL1       -0.0042
     18 C          61.3867   87.2657   10.9487 C.ar    1  UNL1       -0.0027
     19 C          61.5057   85.7754   11.0702 C.ar    1  UNL1       -0.0002
     20 C          62.4924   85.1774   12.0288 C.ar    1  UNL1        0.0021
     21 C          63.3601   86.0697   12.8658 C.ar    1  UNL1       -0.0002
     22 C          63.2412   87.5600   12.7444 C.ar    1  UNL1       -0.0027
     23 C          62.6113   83.6870   12.1502 C.ar    1  UNL1        0.0276
     24 C          63.0186   82.8678   10.9616 C.ar    1  UNL1        0.0045
     25 C          63.1375   81.3774   11.0830 C.ar    1  UNL1        0.0298
     26 C          62.8491   80.7063   12.3931 C.ar    1  UNL1        0.1424
     27 F          62.9680   79.2160   12.5146 F       1  UNL1       -0.2041
     28 C          62.4417   81.5256   13.5818 C.ar    1  UNL1        0.0592
     29 C          62.3228   83.0159   13.4603 C.ar    1  UNL1        0.1423
     30 F          61.9155   83.8352   14.6490 F       1  UNL1       -0.2041
     31 C          66.5588   93.2920   11.6244 C.3     1  UNL1        0.0471
     32 C          66.9205   93.1005   10.1813 C.3     1  UNL1        0.0357
     33 C          68.1809   92.3750    9.8139 C.3     1  UNL1        0.1373
     34 O          69.4915   93.1045    9.8078 O.3     1  UNL1       -0.3820
     35 H          69.4831   93.7787    9.1105 H       1  UNL1        0.2104
@<TRIPOS>BOND
     1    16    15    1
     2    16    17    1
     3    17    18   ar
     4    18    19   ar
     5    19    20   ar
     6    20    23    1
     7    23    24   ar
     8    24    25   ar
     9    25    26   ar
    10    26    27    1
    11    26    28   ar
    12    28    29   ar
    13    29    30    1
    14    20    21   ar
    15    21    22   ar
    16    16     1    1
    17     1     2    1
    18     2     3    1
    19     3     4    1
    20     4    31    1
    21    31    32    1
    22    32    33    1
    23    33    34    1
    24     4     8    1
    25     8     9   ar
    26     9    10   ar
    27    10    11   ar
    28    11    12    1
    29    11    13   ar
    30    13    14   ar
    31     4     5    1
    32     5     6    1
    33     6     7    2
    34    22    17   ar
    35     6     1   am
    36    29    23   ar
    37    14     8   ar
    38    34    35    1
@<TRIPOS>MOLECULE
*****
 35 38 0 0 0
SMALL
GASTEIGER

@<TRIPOS>ATOM
      1 N          63.2961   90.2905   12.0548 N.am    1  UNL1       -0.2438
      2 C          64.0116   90.2143   13.3709 C.3     1  UNL1        0.1009
      3 C          65.2159   91.0729   13.6207 C.3     1  UNL1        0.0661
      4 C          65.7047   92.0077   12.5543 C.3     1  UNL1        0.1578
      5 O          64.9892   92.0839   11.2381 O.3     1  UNL1       -0.4375
      6 C          63.7849   91.2253   10.9884 C.2     1  UNL1        0.4051
      7 O          63.0693   91.3015    9.6723 O.2     1  UNL1       -0.2262
      8 C          66.7115   92.2902   13.6299 C.ar    1  UNL1        0.0139
      9 C          68.1577   91.9593   13.4090 C.ar    1  UNL1        0.0014
     10 C          69.1645   92.2418   14.4845 C.ar    1  UNL1        0.0294
     11 C          68.7248   92.8553   15.7808 C.ar    1  UNL1        0.1401
     12 F          69.7316   93.1378   16.8564 F       1  UNL1       -0.2042
     13 C          67.2786   93.1862   16.0017 C.ar    1  UNL1        0.0294
     14 C          66.2718   92.9036   14.9262 C.ar    1  UNL1        0.0014
     15 C          60.7532   90.0671   11.5713 C.3     1  UNL1        0.0265
     16 C          62.0917   89.4319   11.8051 C.3     1  UNL1        0.1011
     17 C          62.2260   87.9379   11.7891 C.ar    1  UNL1       -0.0042
     18 C          61.4236   87.1231   10.8185 C.ar    1  UNL1       -0.0027
     19 C          61.5579   85.6293   10.8025 C.ar    1  UNL1       -0.0002
     20 C          62.4946   84.9502   11.7573 C.ar    1  UNL1        0.0021
     21 C          63.2969   85.7650   12.7280 C.ar    1  UNL1       -0.0002
     22 C          63.1626   87.2589   12.7439 C.ar    1  UNL1       -0.0027
     23 C          62.6288   83.4562   11.7413 C.ar    1  UNL1        0.0276
     24 C          62.1875   82.6509   12.9273 C.ar    1  UNL1        0.0045
     25 C          62.3218   81.1569   12.9113 C.ar    1  UNL1        0.0298
     26 C          62.8973   80.4684   11.7094 C.ar    1  UNL1        0.1424
     27 F          63.0316   78.9746   11.6934 F       1  UNL1       -0.2041
     28 C          63.3387   81.2739   10.5234 C.ar    1  UNL1        0.0592
     29 C          63.2044   82.7678   10.5394 C.ar    1  UNL1        0.1423
     30 F          63.6457   83.5733    9.3534 F       1  UNL1       -0.2041
     31 C          66.5432   93.0406   11.8615 C.3     1  UNL1        0.0471
     32 C          66.7399   92.9737   10.3760 C.3     1  UNL1        0.0357
     33 C          68.0339   92.4652    9.8129 C.3     1  UNL1        0.1373
     34 O          69.2360   93.3612    9.7687 O.3     1  UNL1       -0.3820
     35 H          69.0699   94.0952    9.1567 H       1  UNL1        0.2104
@<TRIPOS>BOND
     1    16    15    1
     2    16    17    1
     3    17    18   ar
     4    18    19   ar
     5    19    20   ar
     6    20    23    1
     7    23    24   ar
     8    24    25   ar
     9    25    26   ar
    10    26    27    1
    11    26    28   ar
    12    28    29   ar
    13    29    30    1
    14    20    21   ar
    15    21    22   ar
    16    16     1    1
    17     1     2    1
    18     2     3    1
    19     3     4    1
    20     4    31    1
    21    31    32    1
    22    32    33    1
    23    33    34    1
    24     4     8    1
    25     8     9   ar
    26     9    10   ar
    27    10    11   ar
    28    11    12    1
    29    11    13   ar
    30    13    14   ar
    31     4     5    1
    32     5     6    1
    33     6     7    2
    34    22    17   ar
    35     6     1   am
    36    29    23   ar
    37    14     8   ar
    38    34    35    1
@<TRIPOS>MOLECULE
*****
 35 38 0 0 0
SMALL
GASTEIGER

@<TRIPOS>ATOM
      1 N          62.6154   87.9375   12.5121 N.am    1  UNL1       -0.2438
      2 C          62.2280   86.9323   11.4684 C.3     1  UNL1        0.1009
      3 C          62.7154   85.5175   11.5722 C.3     1  UNL1        0.0661
      4 C          63.5902   85.1079   12.7197 C.3     1  UNL1        0.1578
      5 O          63.9777   86.1131   13.7635 O.3     1  UNL1       -0.4375
      6 C          63.4903   87.5279   13.6597 C.2     1  UNL1        0.4051
      7 O          63.8777   88.5331   14.7035 O.2     1  UNL1       -0.2262
      8 C          63.4951   83.8030   11.9860 C.ar    1  UNL1        0.0139
      9 C          64.2795   83.5929   10.7248 C.ar    1  UNL1        0.0014
     10 C          64.1844   82.2880    9.9911 C.ar    1  UNL1        0.0294
     11 C          63.3050   81.1934   10.5186 C.ar    1  UNL1        0.1401
     12 F          63.2099   79.8885    9.7849 F       1  UNL1       -0.2042
     13 C          62.5206   81.4035   11.7798 C.ar    1  UNL1        0.0294
     14 C          62.6156   82.7084   12.5135 C.ar    1  UNL1        0.0014
     15 C          60.7331   89.6984   12.8377 C.3     1  UNL1        0.0265
     16 C          62.1280   89.3523   12.4083 C.3     1  UNL1        0.1011
     17 C          63.0356   90.4210   11.8752 C.ar    1  UNL1       -0.0042
     18 C          62.9567   90.8205   10.4316 C.ar    1  UNL1       -0.0027
     19 C          63.8643   91.8892    9.8985 C.ar    1  UNL1       -0.0002
     20 C          64.8508   92.5584   10.8091 C.ar    1  UNL1        0.0021
     21 C          64.9296   92.1589   12.2527 C.ar    1  UNL1       -0.0002
     22 C          64.0220   91.0902   12.7858 C.ar    1  UNL1       -0.0027
     23 C          65.7584   93.6271   10.2759 C.ar    1  UNL1        0.0276
     24 C          65.3093   95.0582   10.2701 C.ar    1  UNL1        0.0045
     25 C          66.2169   96.1270    9.7370 C.ar    1  UNL1        0.0298
     26 C          67.5736   95.7644    9.2097 C.ar    1  UNL1        0.1424
     27 F          68.4812   96.8330    8.6765 F       1  UNL1       -0.2041
     28 C          68.0226   94.3332    9.2155 C.ar    1  UNL1        0.0592
     29 C          67.1150   93.2645    9.7486 C.ar    1  UNL1        0.1423
     30 F          67.5641   91.8333    9.7545 F       1  UNL1       -0.2041
     31 C          64.4320   84.2451   13.6125 C.3     1  UNL1        0.0471
     32 C          64.2294   84.2809   15.0983 C.3     1  UNL1        0.0357
     33 C          62.8631   84.0545   15.6746 C.3     1  UNL1        0.1373
     34 O          61.9911   85.2253   16.0191 O.3     1  UNL1       -0.3820
     35 H          62.3934   85.7251   16.7466 H       1  UNL1        0.2104
@<TRIPOS>BOND
     1    16    15    1
     2    16    17    1
     3    17    18   ar
     4    18    19   ar
     5    19    20   ar
     6    20    23    1
     7    23    24   ar
     8    24    25   ar
     9    25    26   ar
    10    26    27    1
    11    26    28   ar
    12    28    29   ar
    13    29    30    1
    14    20    21   ar
    15    21    22   ar
    16    16     1    1
    17     1     2    1
    18     2     3    1
    19     3     4    1
    20     4    31    1
    21    31    32    1
    22    32    33    1
    23    33    34    1
    24     4     8    1
    25     8     9   ar
    26     9    10   ar
    27    10    11   ar
    28    11    12    1
    29    11    13   ar
    30    13    14   ar
    31     4     5    1
    32     5     6    1
    33     6     7    2
    34    22    17   ar
    35     6     1   am
    36    29    23   ar
    37    14     8   ar
    38    34    35    1
@<TRIPOS>MOLECULE
*****
 35 38 0 0 0
SMALL
GASTEIGER

@<TRIPOS>ATOM
      1 N          62.2785   88.0080   11.3962 N.am    1  UNL1       -0.2438
      2 C          62.4201   86.8577   12.3484 C.3     1  UNL1        0.1009
      3 C          62.5620   85.4606   11.8211 C.3     1  UNL1        0.0661
      4 C          62.5622   85.2139   10.3416 C.3     1  UNL1        0.1578
      5 O          62.4206   86.3642    9.3893 O.3     1  UNL1       -0.4375
      6 C          62.2787   87.7612    9.9166 C.2     1  UNL1        0.4051
      7 O          62.1370   88.9115    8.9644 O.2     1  UNL1       -0.2262
      8 C          62.7234   83.8083   10.8401 C.ar    1  UNL1        0.0139
      9 C          62.1625   83.4171   12.1751 C.ar    1  UNL1        0.0014
     10 C          62.3237   82.0115   12.6736 C.ar    1  UNL1        0.0294
     11 C          63.0458   80.9973   11.8371 C.ar    1  UNL1        0.1401
     12 F          63.2070   79.5917   12.3356 F       1  UNL1       -0.2042
     13 C          63.6067   81.3885   10.5020 C.ar    1  UNL1        0.0294
     14 C          63.4455   82.7940   10.0035 C.ar    1  UNL1        0.0014
     15 C          60.8252   90.1230   11.8021 C.3     1  UNL1        0.0265
     16 C          62.1366   89.4050   11.9236 C.3     1  UNL1        0.1011
     17 C          63.3062   90.0842   12.5724 C.ar    1  UNL1       -0.0042
     18 C          63.9233   91.2913   11.9305 C.ar    1  UNL1       -0.0027
     19 C          65.0928   91.9703   12.5793 C.ar    1  UNL1       -0.0002
     20 C          65.6452   91.4423   13.8701 C.ar    1  UNL1        0.0021
     21 C          65.0281   90.2352   14.5120 C.ar    1  UNL1       -0.0002
     22 C          63.8586   89.5562   13.8631 C.ar    1  UNL1       -0.0027
     23 C          66.8148   92.1215   14.5189 C.ar    1  UNL1        0.0276
     24 C          66.6330   92.8514   15.8166 C.ar    1  UNL1        0.0045
     25 C          67.8026   93.5305   16.4654 C.ar    1  UNL1        0.0298
     26 C          69.1540   93.4797   15.8165 C.ar    1  UNL1        0.1424
     27 F          70.3235   94.1588   16.4652 F       1  UNL1       -0.2041
     28 C          69.3358   92.7497   14.5187 C.ar    1  UNL1        0.0592
     29 C          68.1662   92.0706   13.8699 C.ar    1  UNL1        0.1423
     30 F          68.3480   91.3406   12.5721 F       1  UNL1       -0.2041
     31 C          62.6184   84.4789    9.0351 C.3     1  UNL1        0.0471
     32 C          62.5128   85.2351    7.7440 C.3     1  UNL1        0.0357
     33 C          62.3639   84.4920    6.4496 C.3     1  UNL1        0.1373
     34 O          60.9983   84.1307    5.9450 O.3     1  UNL1       -0.3820
     35 H          60.5899   83.4899    6.5479 H       1  UNL1        0.2104
@<TRIPOS>BOND
     1    16    15    1
     2    16    17    1
     3    17    18   ar
     4    18    19   ar
     5    19    20   ar
     6    20    23    1
     7    23    24   ar
     8    24    25   ar
     9    25    26   ar
    10    26    27    1
    11    26    28   ar
    12    28    29   ar
    13    29    30    1
    14    20    21   ar
    15    21    22   ar
    16    16     1    1
    17     1     2    1
    18     2     3    1
    19     3     4    1
    20     4    31    1
    21    31    32    1
    22    32    33    1
    23    33    34    1
    24     4     8    1
    25     8     9   ar
    26     9    10   ar
    27    10    11   ar
    28    11    12    1
    29    11    13   ar
    30    13    14   ar
    31     4     5    1
    32     5     6    1
    33     6     7    2
    34    22    17   ar
    35     6     1   am
    36    29    23   ar
    37    14     8   ar
    38    34    35    1
