@<TRIPOS>MOLECULE
*****
 29 32 0 0 0
SMALL
GASTEIGER

@<TRIPOS>ATOM
      1 C          62.7728   89.2758   11.5195 C.2     1  UNL1        0.2463
      2 O          61.5103   89.0092   12.2843 O.2     1  UNL1       -0.2701
      3 N          63.1378   88.4110   10.3496 N.am    1  UNL1       -0.2951
      4 H          63.9665   88.5860    9.8477 H       1  UNL1        0.1503
      5 N          67.4782   93.8359   15.8425 N.pl3   1  UNL1       -0.3375
      6 C          66.6235   93.1613   14.8108 C.ar    1  UNL1        0.1567
      7 N          66.3757   93.6500   13.4145 N.ar    1  UNL1       -0.2245
      8 C          65.4655   92.6702   12.7351 C.ar    1  UNL1        0.0892
      9 C          64.8827   92.6331   11.3535 C.ar    1  UNL1        0.0198
     10 C          63.9851   91.5016   10.9483 C.ar    1  UNL1        0.0061
     11 C          63.6704   90.4073   11.9248 C.ar    1  UNL1        0.0540
     12 C          64.2533   90.4444   13.3064 C.ar    1  UNL1        0.0126
     13 C          65.1508   91.5758   13.7115 C.ar    1  UNL1        0.0498
     14 S          65.8665   91.8794   14.9944 S.2     1  UNL1       -0.0520
     15 H          67.9376   94.6794   15.6260 H       1  UNL1        0.1442
     16 H          67.5798   93.4353   16.7360 H       1  UNL1        0.1442
     17 C          62.2402   87.2795    9.9444 C.3     1  UNL1        0.1171
     18 C          61.0476   87.5431    9.0736 C.ar    1  UNL1       -0.0003
     19 C          60.6591   88.9531    8.7406 C.ar    1  UNL1       -0.0024
     20 C          59.4665   89.2167    7.8699 C.ar    1  UNL1       -0.0003
     21 C          58.6624   88.0703    7.3321 C.ar    1  UNL1       -0.0000
     22 C          59.0510   86.6603    7.6651 C.ar    1  UNL1       -0.0003
     23 C          60.2436   86.3967    8.5359 C.ar    1  UNL1       -0.0024
     24 C          62.5353   85.8844   10.4099 C.ar    1  UNL1       -0.0003
     25 C          62.1922   85.4730   11.8110 C.ar    1  UNL1       -0.0024
     26 C          62.4873   84.0780   12.2765 C.ar    1  UNL1       -0.0003
     27 C          63.1254   83.0943   11.3410 C.ar    1  UNL1       -0.0000
     28 C          63.4684   83.5057    9.9399 C.ar    1  UNL1       -0.0003
     29 C          63.1734   84.9008    9.4743 C.ar    1  UNL1       -0.0024
@<TRIPOS>BOND
     1     5     6    1
     2     6     7   ar
     3     7     8   ar
     4     8     9   ar
     5     9    10   ar
     6    10    11   ar
     7    11     1    1
     8     1     2    2
     9     1     3   am
    10     3    17    1
    11    17    18    1
    12    18    19   ar
    13    19    20   ar
    14    20    21   ar
    15    21    22   ar
    16    22    23   ar
    17    17    24    1
    18    24    25   ar
    19    25    26   ar
    20    26    27   ar
    21    27    28   ar
    22    28    29   ar
    23    11    12   ar
    24    12    13   ar
    25    13    14   ar
    26    14     6   ar
    27    13     8   ar
    28    23    18   ar
    29    29    24   ar
    30     5    15    1
    31     5    16    1
    32     3     4    1
@<TRIPOS>MOLECULE
*****
 29 32 0 0 0
SMALL
GASTEIGER

@<TRIPOS>ATOM
      1 C          62.7704   89.2813   11.5228 C.2     1  UNL1        0.2463
      2 O          61.5043   89.0244   12.2850 O.2     1  UNL1       -0.2701
      3 N          63.1390   88.4041   10.3633 N.am    1  UNL1       -0.2951
      4 H          63.9700   88.5727    9.8630 H       1  UNL1        0.1503
      5 N          67.4722   93.8734   15.8157 N.pl3   1  UNL1       -0.3375
      6 C          66.6186   93.1910   14.7883 C.ar    1  UNL1        0.1567
      7 N          66.3728   93.6687   13.3878 N.ar    1  UNL1       -0.2245
      8 C          65.4631   92.6840   12.7150 C.ar    1  UNL1        0.0892
      9 C          64.8820   92.6362   11.3330 C.ar    1  UNL1        0.0198
     10 C          63.9845   91.5020   10.9356 C.ar    1  UNL1        0.0061
     11 C          63.6680   90.4156   11.9203 C.ar    1  UNL1        0.0540
     12 C          64.2491   90.4634   13.3023 C.ar    1  UNL1        0.0126
     13 C          65.1466   91.5976   13.6997 C.ar    1  UNL1        0.0498
     14 S          65.8607   91.9109   14.9810 S.2     1  UNL1       -0.0520
     15 H          67.9323   94.7149   15.5932 H       1  UNL1        0.1442
     16 H          67.5725   93.4798   16.7125 H       1  UNL1        0.1442
     17 C          62.2414   87.2698    9.9658 C.3     1  UNL1        0.1171
     18 C          62.5365   85.8780   10.4408 C.ar    1  UNL1       -0.0003
     19 C          63.1735   84.8877    9.5116 C.ar    1  UNL1       -0.0024
     20 C          63.4686   83.4958    9.9866 C.ar    1  UNL1       -0.0003
     21 C          63.1266   83.0943   11.3909 C.ar    1  UNL1       -0.0000
     22 C          62.4896   84.0846   12.3201 C.ar    1  UNL1       -0.0003
     23 C          62.1945   85.4765   11.8450 C.ar    1  UNL1       -0.0024
     24 C          61.0487   87.5275    9.0934 C.ar    1  UNL1       -0.0003
     25 C          60.6589   88.9353    8.7526 C.ar    1  UNL1       -0.0024
     26 C          59.4662   89.1930    7.8802 C.ar    1  UNL1       -0.0003
     27 C          58.6633   88.0429    7.3486 C.ar    1  UNL1       -0.0000
     28 C          59.0531   86.6350    7.6894 C.ar    1  UNL1       -0.0003
     29 C          60.2458   86.3773    8.5618 C.ar    1  UNL1       -0.0024
@<TRIPOS>BOND
     1     5     6    1
     2     6     7   ar
     3     7     8   ar
     4     8     9   ar
     5     9    10   ar
     6    10    11   ar
     7    11     1    1
     8     1     2    2
     9     1     3   am
    10     3    17    1
    11    17    18    1
    12    18    19   ar
    13    19    20   ar
    14    20    21   ar
    15    21    22   ar
    16    22    23   ar
    17    17    24    1
    18    24    25   ar
    19    25    26   ar
    20    26    27   ar
    21    27    28   ar
    22    28    29   ar
    23    11    12   ar
    24    12    13   ar
    25    13    14   ar
    26    14     6   ar
    27    13     8   ar
    28    23    18   ar
    29    29    24   ar
    30     5    15    1
    31     5    16    1
    32     3     4    1
@<TRIPOS>MOLECULE
*****
 29 32 0 0 0
SMALL
GASTEIGER

@<TRIPOS>ATOM
      1 C          64.1044   91.3328   11.8521 C.2     1  UNL1        0.2463
      2 O          63.9656   91.8870   13.2390 O.2     1  UNL1       -0.2701
      3 N          65.1452   91.8858   10.9242 N.am    1  UNL1       -0.2951
      4 H          65.2363   91.5221   10.0139 H       1  UNL1        0.1503
      5 N          58.7137   87.3694    7.7467 N.pl3   1  UNL1       -0.3375
      6 C          59.7672   87.8831    8.6828 C.ar    1  UNL1        0.1567
      7 N          60.4033   87.1133    9.8021 N.ar    1  UNL1       -0.2245
      8 C          61.3988   88.0112   10.4751 C.ar    1  UNL1        0.0892
      9 C          62.3215   87.7937   11.6375 C.ar    1  UNL1        0.0198
     10 C          63.2234   88.9009   12.0964 C.ar    1  UNL1        0.0061
     11 C          63.2025   90.2256   11.3931 C.ar    1  UNL1        0.0540
     12 C          62.2798   90.4431   10.2307 C.ar    1  UNL1        0.0126
     13 C          61.3779   89.3359    9.7717 C.ar    1  UNL1        0.0498
     14 S          60.3695   89.2567    8.6640 S.2     1  UNL1       -0.0520
     15 H          58.3799   86.4479    7.8393 H       1  UNL1        0.1442
     16 H          58.3561   87.9538    7.0397 H       1  UNL1        0.1442
     17 C          66.0471   92.9930   11.3833 C.3     1  UNL1        0.1171
     18 C          66.7464   92.8910   12.7063 C.ar    1  UNL1       -0.0003
     19 C          67.7244   91.7809   12.9541 C.ar    1  UNL1       -0.0024
     20 C          68.4236   91.6788   14.2772 C.ar    1  UNL1       -0.0003
     21 C          68.1450   92.6868   15.3526 C.ar    1  UNL1       -0.0000
     22 C          67.1670   93.7969   15.1048 C.ar    1  UNL1       -0.0003
     23 C          66.4677   93.8989   13.7816 C.ar    1  UNL1       -0.0024
     24 C          66.2497   94.2023   10.5192 C.ar    1  UNL1       -0.0003
     25 C          67.3020   94.1925    9.4503 C.ar    1  UNL1       -0.0024
     26 C          67.5046   95.4018    8.5862 C.ar    1  UNL1       -0.0003
     27 C          66.6549   96.6208    8.7910 C.ar    1  UNL1       -0.0000
     28 C          65.6026   96.6306    9.8600 C.ar    1  UNL1       -0.0003
     29 C          65.4000   95.4214   10.7241 C.ar    1  UNL1       -0.0024
@<TRIPOS>BOND
     1     5     6    1
     2     6     7   ar
     3     7     8   ar
     4     8     9   ar
     5     9    10   ar
     6    10    11   ar
     7    11     1    1
     8     1     2    2
     9     1     3   am
    10     3    17    1
    11    17    18    1
    12    18    19   ar
    13    19    20   ar
    14    20    21   ar
    15    21    22   ar
    16    22    23   ar
    17    17    24    1
    18    24    25   ar
    19    25    26   ar
    20    26    27   ar
    21    27    28   ar
    22    28    29   ar
    23    11    12   ar
    24    12    13   ar
    25    13    14   ar
    26    14     6   ar
    27    13     8   ar
    28    23    18   ar
    29    29    24   ar
    30     5    15    1
    31     5    16    1
    32     3     4    1
@<TRIPOS>MOLECULE
*****
 29 32 0 0 0
SMALL
GASTEIGER

@<TRIPOS>ATOM
      1 C          64.1177   91.3361   11.8471 C.2     1  UNL1        0.2463
      2 O          63.9968   91.8694   13.2439 O.2     1  UNL1       -0.2701
      3 N          65.1445   91.9051   10.9133 N.am    1  UNL1       -0.2951
      4 H          65.2238   91.5550    9.9965 H       1  UNL1        0.1503
      5 N          58.7115   87.4073    7.7287 N.pl3   1  UNL1       -0.3375
      6 C          59.7672   87.9137    8.6664 C.ar    1  UNL1        0.1567
      7 N          60.4012   87.1374    9.7823 N.ar    1  UNL1       -0.2245
      8 C          61.4001   88.0292   10.4583 C.ar    1  UNL1        0.0892
      9 C          62.3227   87.8039   11.6193 C.ar    1  UNL1        0.0198
     10 C          63.2285   88.9062   12.0822 C.ar    1  UNL1        0.0061
     11 C          63.2118   90.2338   11.3841 C.ar    1  UNL1        0.0540
     12 C          62.2892   90.4590   10.2231 C.ar    1  UNL1        0.0126
     13 C          61.3834   89.3567    9.7602 C.ar    1  UNL1        0.0498
     14 S          60.3742   89.2853    8.6527 S.2     1  UNL1       -0.0520
     15 H          58.3746   86.4866    7.8179 H       1  UNL1        0.1442
     16 H          58.3555   87.9957    7.0242 H       1  UNL1        0.1442
     17 C          66.0504   93.0074   11.3763 C.3     1  UNL1        0.1171
     18 C          66.2611   94.2168   10.5144 C.ar    1  UNL1       -0.0003
     19 C          67.3251   94.2082    9.4572 C.ar    1  UNL1       -0.0024
     20 C          67.5358   95.4176    8.5953 C.ar    1  UNL1       -0.0003
     21 C          66.6825   96.6357    8.7907 C.ar    1  UNL1       -0.0000
     22 C          65.6184   96.6443    9.8479 C.ar    1  UNL1       -0.0003
     23 C          65.4077   95.4348   10.7098 C.ar    1  UNL1       -0.0024
     24 C          66.7456   92.9002   12.7011 C.ar    1  UNL1       -0.0003
     25 C          67.7161   91.7841   12.9507 C.ar    1  UNL1       -0.0024
     26 C          68.4113   91.6769   14.2755 C.ar    1  UNL1       -0.0003
     27 C          68.1360   92.6858   15.3508 C.ar    1  UNL1       -0.0000
     28 C          67.1654   93.8020   15.1013 C.ar    1  UNL1       -0.0003
     29 C          66.4702   93.9092   13.7764 C.ar    1  UNL1       -0.0024
@<TRIPOS>BOND
     1     5     6    1
     2     6     7   ar
     3     7     8   ar
     4     8     9   ar
     5     9    10   ar
     6    10    11   ar
     7    11     1    1
     8     1     2    2
     9     1     3   am
    10     3    17    1
    11    17    18    1
    12    18    19   ar
    13    19    20   ar
    14    20    21   ar
    15    21    22   ar
    16    22    23   ar
    17    17    24    1
    18    24    25   ar
    19    25    26   ar
    20    26    27   ar
    21    27    28   ar
    22    28    29   ar
    23    11    12   ar
    24    12    13   ar
    25    13    14   ar
    26    14     6   ar
    27    13     8   ar
    28    23    18   ar
    29    29    24   ar
    30     5    15    1
    31     5    16    1
    32     3     4    1
@<TRIPOS>MOLECULE
*****
 29 32 0 0 0
SMALL
GASTEIGER

@<TRIPOS>ATOM
      1 C          62.6998   88.2839   11.8923 C.2     1  UNL1        0.2463
      2 O          61.2182   88.3292   11.6627 O.2     1  UNL1       -0.2701
      3 N          63.4501   86.9998   11.6967 N.am    1  UNL1       -0.2951
      4 H          64.4225   86.9700   11.8474 H       1  UNL1        0.1503
      5 N          66.8277   93.3381   16.2555 N.pl3   1  UNL1       -0.3375
      6 C          66.0450   92.5813   15.2238 C.ar    1  UNL1        0.1567
      7 N          65.6713   93.0803   13.8594 N.ar    1  UNL1       -0.2245
      8 C          64.8938   92.0000   13.1676 C.ar    1  UNL1        0.0892
      9 C          64.2694   91.9279   11.8057 C.ar    1  UNL1        0.0198
     10 C          63.5381   90.6892   11.3806 C.ar    1  UNL1        0.0061
     11 C          63.4312   89.5226   12.3174 C.ar    1  UNL1        0.0540
     12 C          64.0556   89.5947   13.6793 C.ar    1  UNL1        0.0126
     13 C          64.7869   90.8334   14.1044 C.ar    1  UNL1        0.0498
     14 S          65.4984   91.1927   15.3752 S.2     1  UNL1       -0.0520
     15 H          67.1453   94.2496   16.0616 H       1  UNL1        0.1442
     16 H          67.0238   92.9234   17.1266 H       1  UNL1        0.1442
     17 C          62.7187   85.7611   11.2715 C.3     1  UNL1        0.1171
     18 C          62.5639   84.6160   12.2280 C.ar    1  UNL1       -0.0003
     19 C          62.5079   83.2091   11.7108 C.ar    1  UNL1       -0.0024
     20 C          62.3531   82.0640   12.6672 C.ar    1  UNL1       -0.0003
     21 C          62.2542   82.3259   14.1409 C.ar    1  UNL1       -0.0000
     22 C          62.3102   83.7328   14.6581 C.ar    1  UNL1       -0.0003
     23 C          62.4651   84.8779   13.7016 C.ar    1  UNL1       -0.0024
     24 C          62.1422   85.6675    9.8899 C.ar    1  UNL1       -0.0003
     25 C          62.9549   85.0760    8.7766 C.ar    1  UNL1       -0.0024
     26 C          62.3784   84.9824    7.3950 C.ar    1  UNL1       -0.0003
     27 C          60.9892   85.4803    7.1267 C.ar    1  UNL1       -0.0000
     28 C          60.1763   86.0718    8.2400 C.ar    1  UNL1       -0.0003
     29 C          60.7528   86.1654    9.6217 C.ar    1  UNL1       -0.0024
@<TRIPOS>BOND
     1     5     6    1
     2     6     7   ar
     3     7     8   ar
     4     8     9   ar
     5     9    10   ar
     6    10    11   ar
     7    11     1    1
     8     1     2    2
     9     1     3   am
    10     3    17    1
    11    17    18    1
    12    18    19   ar
    13    19    20   ar
    14    20    21   ar
    15    21    22   ar
    16    22    23   ar
    17    17    24    1
    18    24    25   ar
    19    25    26   ar
    20    26    27   ar
    21    27    28   ar
    22    28    29   ar
    23    11    12   ar
    24    12    13   ar
    25    13    14   ar
    26    14     6   ar
    27    13     8   ar
    28    23    18   ar
    29    29    24   ar
    30     5    15    1
    31     5    16    1
    32     3     4    1
@<TRIPOS>MOLECULE
*****
 29 32 0 0 0
SMALL
GASTEIGER

@<TRIPOS>ATOM
      1 C          62.6044   88.9029   11.8497 C.2     1  UNL1        0.2463
      2 O          61.1568   88.9335   12.2417 O.2     1  UNL1       -0.2701
      3 N          63.1744   87.6879   11.1798 N.am    1  UNL1       -0.2951
      4 H          64.1245   87.6677   10.9225 H       1  UNL1        0.1503
      5 N          67.3753   93.8926   15.5866 N.pl3   1  UNL1       -0.3375
      6 C          66.4895   93.1228   14.6523 C.ar    1  UNL1        0.1567
      7 N          66.1475   93.5081   13.2436 N.ar    1  UNL1       -0.2245
      8 C          65.2369   92.4560   12.6833 C.ar    1  UNL1        0.0892
      9 C          64.5802   92.3072   11.3430 C.ar    1  UNL1        0.0198
     10 C          63.7028   91.1228   11.0651 C.ar    1  UNL1        0.0061
     11 C          63.4819   90.0873   12.1276 C.ar    1  UNL1        0.0540
     12 C          64.1386   90.2361   13.4680 C.ar    1  UNL1        0.0126
     13 C          65.0160   91.4205   13.7458 C.ar    1  UNL1        0.0498
     14 S          65.7902   91.8326   14.9627 S.2     1  UNL1       -0.0520
     15 H          67.7915   94.7338   15.2893 H       1  UNL1        0.1442
     16 H          67.5404   93.5566   16.4972 H       1  UNL1        0.1442
     17 C          62.2968   86.5034   10.9019 C.3     1  UNL1        0.1171
     18 C          61.3001   86.5548    9.7822 C.ar    1  UNL1       -0.0003
     19 C          61.5595   85.8003    8.5120 C.ar    1  UNL1       -0.0024
     20 C          60.5628   85.8516    7.3922 C.ar    1  UNL1       -0.0003
     21 C          59.3066   86.6575    7.5427 C.ar    1  UNL1       -0.0000
     22 C          59.0472   87.4120    8.8129 C.ar    1  UNL1       -0.0003
     23 C          60.0440   87.3606    9.9327 C.ar    1  UNL1       -0.0024
     24 C          62.4161   85.2677   11.7438 C.ar    1  UNL1       -0.0003
     25 C          62.3985   85.3748   13.2398 C.ar    1  UNL1       -0.0024
     26 C          62.5177   84.1391   14.0817 C.ar    1  UNL1       -0.0003
     27 C          62.6546   82.7963   13.4276 C.ar    1  UNL1       -0.0000
     28 C          62.6723   82.6891   11.9315 C.ar    1  UNL1       -0.0003
     29 C          62.5530   83.9248   11.0896 C.ar    1  UNL1       -0.0024
@<TRIPOS>BOND
     1     5     6    1
     2     6     7   ar
     3     7     8   ar
     4     8     9   ar
     5     9    10   ar
     6    10    11   ar
     7    11     1    1
     8     1     2    2
     9     1     3   am
    10     3    17    1
    11    17    18    1
    12    18    19   ar
    13    19    20   ar
    14    20    21   ar
    15    21    22   ar
    16    22    23   ar
    17    17    24    1
    18    24    25   ar
    19    25    26   ar
    20    26    27   ar
    21    27    28   ar
    22    28    29   ar
    23    11    12   ar
    24    12    13   ar
    25    13    14   ar
    26    14     6   ar
    27    13     8   ar
    28    23    18   ar
    29    29    24   ar
    30     5    15    1
    31     5    16    1
    32     3     4    1
@<TRIPOS>MOLECULE
*****
 29 32 0 0 0
SMALL
GASTEIGER

@<TRIPOS>ATOM
      1 C          62.8106   88.3213   12.0511 C.2     1  UNL1        0.2463
      2 O          61.3471   88.4362   11.7429 O.2     1  UNL1       -0.2701
      3 N          63.5045   86.9986   11.9131 N.am    1  UNL1       -0.2951
      4 H          64.4651   86.9232   12.1154 H       1  UNL1        0.1503
      5 N          66.6149   95.1853   11.8653 N.pl3   1  UNL1       -0.3375
      6 C          65.9496   93.8788   12.1820 C.ar    1  UNL1        0.1567
      7 N          65.8714   93.2342   13.5342 N.ar    1  UNL1       -0.2245
      8 C          65.1191   91.9445   13.3901 C.ar    1  UNL1        0.0892
      9 C          64.7363   90.8892   14.3850 C.ar    1  UNL1        0.0198
     10 C          63.9668   89.6815   13.9387 C.ar    1  UNL1        0.0061
     11 C          63.5801   89.5290   12.4974 C.ar    1  UNL1        0.0540
     12 C          63.9630   90.5843   11.5025 C.ar    1  UNL1        0.0126
     13 C          64.7325   91.7920   11.9488 C.ar    1  UNL1        0.0498
     14 S          65.2457   92.9874   11.2023 S.2     1  UNL1       -0.0520
     15 H          67.0531   95.7008   12.5806 H       1  UNL1        0.1442
     16 H          66.6135   95.5274   10.9422 H       1  UNL1        0.1442
     17 C          62.7350   85.7909   11.4668 C.3     1  UNL1        0.1171
     18 C          62.1246   85.7544   10.0971 C.ar    1  UNL1       -0.0003
     19 C          62.9086   85.2079    8.9409 C.ar    1  UNL1       -0.0024
     20 C          62.2983   85.1715    7.5712 C.ar    1  UNL1       -0.0003
     21 C          60.9039   85.6815    7.3577 C.ar    1  UNL1       -0.0000
     22 C          60.1199   86.2280    8.5138 C.ar    1  UNL1       -0.0003
     23 C          60.7303   86.2644    9.8836 C.ar    1  UNL1       -0.0024
     24 C          62.5758   84.6196   12.3902 C.ar    1  UNL1       -0.0003
     25 C          62.4752   84.8398   13.8705 C.ar    1  UNL1       -0.0024
     26 C          62.3161   83.6685   14.7940 C.ar    1  UNL1       -0.0003
     27 C          62.2575   82.2770   14.2371 C.ar    1  UNL1       -0.0000
     28 C          62.3582   82.0567   12.7568 C.ar    1  UNL1       -0.0003
     29 C          62.5173   83.2280   11.8333 C.ar    1  UNL1       -0.0024
@<TRIPOS>BOND
     1     5     6    1
     2     6     7   ar
     3     7     8   ar
     4     8     9   ar
     5     9    10   ar
     6    10    11   ar
     7    11     1    1
     8     1     2    2
     9     1     3   am
    10     3    17    1
    11    17    18    1
    12    18    19   ar
    13    19    20   ar
    14    20    21   ar
    15    21    22   ar
    16    22    23   ar
    17    17    24    1
    18    24    25   ar
    19    25    26   ar
    20    26    27   ar
    21    27    28   ar
    22    28    29   ar
    23    11    12   ar
    24    12    13   ar
    25    13    14   ar
    26    14     6   ar
    27    13     8   ar
    28    23    18   ar
    29    29    24   ar
    30     5    15    1
    31     5    16    1
    32     3     4    1
@<TRIPOS>MOLECULE
*****
 29 32 0 0 0
SMALL
GASTEIGER

@<TRIPOS>ATOM
      1 C          61.9584   88.6890   11.8787 C.2     1  UNL1        0.2463
      2 O          61.0621   89.5663   12.7015 O.2     1  UNL1       -0.2701
      3 N          63.3808   88.4655   12.2990 N.am    1  UNL1       -0.2951
      4 H          63.9690   87.8897   11.7590 H       1  UNL1        0.1503
      5 N          61.4224   83.9582    5.6372 N.pl3   1  UNL1       -0.3375
      6 C          61.2707   84.9636    6.7400 C.ar    1  UNL1        0.1567
      7 N          60.1176   85.9056    6.9220 N.ar    1  UNL1       -0.2245
      8 C          60.3797   86.7277    8.1489 C.ar    1  UNL1        0.0892
      9 C          59.5908   87.8153    8.8158 C.ar    1  UNL1        0.0198
     10 C          60.1170   88.4690   10.0590 C.ar    1  UNL1        0.0061
     11 C          61.4322   88.0352   10.6354 C.ar    1  UNL1        0.0540
     12 C          62.2211   86.9476    9.9685 C.ar    1  UNL1        0.0126
     13 C          61.6949   86.2939    8.7253 C.ar    1  UNL1        0.0498
     14 S          62.2455   85.2036    7.8545 S.2     1  UNL1       -0.0520
     15 H          60.7246   83.8749    4.9477 H       1  UNL1        0.1442
     16 H          62.2197   83.3817    5.6029 H       1  UNL1        0.1442
     17 C          63.9070   89.1193   13.5423 C.3     1  UNL1        0.1171
     18 C          63.6740   88.4830   14.8805 C.ar    1  UNL1       -0.0003
     19 C          63.9325   87.0175   15.0693 C.ar    1  UNL1       -0.0024
     20 C          63.6995   86.3812   16.4075 C.ar    1  UNL1       -0.0003
     21 C          63.2079   87.2102   17.5569 C.ar    1  UNL1       -0.0000
     22 C          62.9493   88.6757   17.3680 C.ar    1  UNL1       -0.0003
     23 C          63.1823   89.3120   16.0298 C.ar    1  UNL1       -0.0024
     24 C          64.6662   90.4095   13.4474 C.ar    1  UNL1       -0.0003
     25 C          65.6762   90.7644   14.4980 C.ar    1  UNL1       -0.0024
     26 C          66.4354   92.0546   14.4030 C.ar    1  UNL1       -0.0003
     27 C          66.1846   92.9899   13.2575 C.ar    1  UNL1       -0.0000
     28 C          65.1745   92.6350   12.2068 C.ar    1  UNL1       -0.0003
     29 C          64.4153   91.3448   12.3018 C.ar    1  UNL1       -0.0024
@<TRIPOS>BOND
     1     5     6    1
     2     6     7   ar
     3     7     8   ar
     4     8     9   ar
     5     9    10   ar
     6    10    11   ar
     7    11     1    1
     8     1     2    2
     9     1     3   am
    10     3    17    1
    11    17    18    1
    12    18    19   ar
    13    19    20   ar
    14    20    21   ar
    15    21    22   ar
    16    22    23   ar
    17    17    24    1
    18    24    25   ar
    19    25    26   ar
    20    26    27   ar
    21    27    28   ar
    22    28    29   ar
    23    11    12   ar
    24    12    13   ar
    25    13    14   ar
    26    14     6   ar
    27    13     8   ar
    28    23    18   ar
    29    29    24   ar
    30     5    15    1
    31     5    16    1
    32     3     4    1
@<TRIPOS>MOLECULE
*****
 29 32 0 0 0
SMALL
GASTEIGER

@<TRIPOS>ATOM
      1 C          61.9629   88.6969   11.8945 C.2     1  UNL1        0.2463
      2 O          61.0494   89.5280   12.7458 O.2     1  UNL1       -0.2701
      3 N          63.3972   88.5120   12.2925 N.am    1  UNL1       -0.2951
      4 H          63.9968   87.9665   11.7337 H       1  UNL1        0.1503
      5 N          61.4306   83.9718    5.6484 N.pl3   1  UNL1       -0.3375
      6 C          61.2809   84.9800    6.7489 C.ar    1  UNL1        0.1567
      7 N          60.1405   85.9398    6.9163 N.ar    1  UNL1       -0.2245
      8 C          60.4002   86.7584    8.1461 C.ar    1  UNL1        0.0892
      9 C          59.6200   87.8584    8.8028 C.ar    1  UNL1        0.0198
     10 C          60.1410   88.5046   10.0523 C.ar    1  UNL1        0.0061
     11 C          61.4420   88.0507   10.6450 C.ar    1  UNL1        0.0540
     12 C          62.2221   86.9506    9.9883 C.ar    1  UNL1        0.0126
     13 C          61.7012   86.3045    8.7389 C.ar    1  UNL1        0.0498
     14 S          62.2455   85.2054    7.8753 S.2     1  UNL1       -0.0520
     15 H          60.7402   83.8990    4.9503 H       1  UNL1        0.1442
     16 H          62.2192   83.3830    5.6241 H       1  UNL1        0.1442
     17 C          63.9181   89.1582   13.5420 C.3     1  UNL1        0.1171
     18 C          64.6727   90.4519   13.4588 C.ar    1  UNL1       -0.0003
     19 C          65.6547   90.8177   14.5320 C.ar    1  UNL1       -0.0024
     20 C          66.4093   92.1114   14.4487 C.ar    1  UNL1       -0.0003
     21 C          66.1820   93.0392   13.2922 C.ar    1  UNL1       -0.0000
     22 C          65.2000   92.6734   12.2190 C.ar    1  UNL1       -0.0003
     23 C          64.4453   91.3796   12.3023 C.ar    1  UNL1       -0.0024
     24 C          63.6844   88.5107   14.8747 C.ar    1  UNL1       -0.0003
     25 C          63.1952   89.3307   16.0315 C.ar    1  UNL1       -0.0024
     26 C          62.9614   88.6832   17.3642 C.ar    1  UNL1       -0.0003
     27 C          63.2169   87.2157   17.5401 C.ar    1  UNL1       -0.0000
     28 C          63.7061   86.3955   16.3833 C.ar    1  UNL1       -0.0003
     29 C          63.9399   87.0431   15.0506 C.ar    1  UNL1       -0.0024
@<TRIPOS>BOND
     1     5     6    1
     2     6     7   ar
     3     7     8   ar
     4     8     9   ar
     5     9    10   ar
     6    10    11   ar
     7    11     1    1
     8     1     2    2
     9     1     3   am
    10     3    17    1
    11    17    18    1
    12    18    19   ar
    13    19    20   ar
    14    20    21   ar
    15    21    22   ar
    16    22    23   ar
    17    17    24    1
    18    24    25   ar
    19    25    26   ar
    20    26    27   ar
    21    27    28   ar
    22    28    29   ar
    23    11    12   ar
    24    12    13   ar
    25    13    14   ar
    26    14     6   ar
    27    13     8   ar
    28    23    18   ar
    29    29    24   ar
    30     5    15    1
    31     5    16    1
    32     3     4    1
