@<TRIPOS>MOLECULE
*****
 24 27 0 0 0
SMALL
GASTEIGER

@<TRIPOS>ATOM
      1 C          63.8822   89.3607   14.7235 C.3     1  UNL1        0.0271
      2 C          64.5935   90.5151   14.0820 C.2     1  UNL1       -0.0337
      3 C          65.6516   91.2595   14.8412 C.2     1  UNL1        0.0025
      4 C          66.3629   92.4138   14.1998 C.2     1  UNL1        0.0690
      5 C          66.0162   92.8238   12.7991 C.2     1  UNL1        0.0256
      6 C          64.9582   92.0794   12.0400 C.2     1  UNL1        0.0674
      7 N          64.4067   92.2525   10.6558 N.2     1  UNL1       -0.2476
      8 C          63.3545   91.2051   10.4418 C.2     1  UNL1        0.1013
      9 C          63.2557   90.3847   11.6937 C.2     1  UNL1        0.0814
     10 C          64.2468   90.9250   12.6814 C.3     1  UNL1        0.0886
     11 C          67.4210   93.1583   14.9590 C.1     1  UNL1        0.1004
     12 N          68.4791   93.9027   15.7182 N.1     1  UNL1       -0.1908
     13 C          62.3285   89.2272   11.9183 C.2     1  UNL1        0.3394
     14 O          60.8954   89.4745   12.2859 O.2     1  UNL1       -0.2452
     15 O          62.8344   87.8223   11.7755 O.3     1  UNL1       -0.4456
     16 C          61.8841   86.7145   11.4295 C.3     1  UNL1        0.2087
     17 C          61.6904   86.3123    9.9975 C.3     1  UNL1        0.0445
     18 C          62.7687   85.5573    9.2782 C.3     1  UNL1        0.0210
     19 C          62.5750   85.1550    7.8461 C.3     1  UNL1        0.0722
     20 N          61.3031   85.5078    7.1334 N.3     1  UNL1       -0.2727
     21 C          60.2249   86.2628    7.8527 C.3     1  UNL1        0.0722
     22 C          60.4186   86.6651    9.2848 C.3     1  UNL1        0.0210
     23 C          61.3636   85.7497    7.9182 C.3     1  UNL1        0.0722
     24 C          61.5387   86.1134    9.2130 C.3     1  UNL1        0.0210
@<TRIPOS>BOND
     1     1     2    1
     2     2     3    2
     3     3     4    1
     4     4    11    1
     5    11    12    3
     6     4     5    2
     7     5     6    1
     8     6     7    2
     9     7     8    1
    10     8     9    2
    11     9    13    1
    12    13    14    2
    13    13    15    1
    14    15    16    1
    15    16    17    1
    16    17    18    1
    17    18    19    1
    18    19    20    1
    19    20    21    1
    20    21    22    1
    21    20    23    1
    22    23    24    1
    23     9    10    1
    24    10     2    1
    25    10     6    1
    26    22    17    1
    27    24    17    1
@<TRIPOS>MOLECULE
*****
 24 27 0 0 0
SMALL
GASTEIGER

@<TRIPOS>ATOM
      1 C          63.8700   89.2349   14.6832 C.3     1  UNL1        0.0271
      2 C          64.5497   90.4137   14.0521 C.2     1  UNL1       -0.0337
      3 C          65.5979   91.1708   14.8124 C.2     1  UNL1        0.0025
      4 C          66.2777   92.3495   14.1813 C.2     1  UNL1        0.0690
      5 C          65.9093   92.7714   12.7897 C.2     1  UNL1        0.0256
      6 C          64.8611   92.0143   12.0294 C.2     1  UNL1        0.0674
      7 N          64.2933   92.1946   10.6527 N.2     1  UNL1       -0.2476
      8 C          63.2626   91.1271   10.4331 C.2     1  UNL1        0.1013
      9 C          63.1934   90.2872   11.6740 C.2     1  UNL1        0.0814
     10 C          64.1813   90.8355   12.6605 C.3     1  UNL1        0.0886
     11 C          67.3259   93.1066   14.9417 C.1     1  UNL1        0.1004
     12 N          68.3741   93.8636   15.7021 N.1     1  UNL1       -0.1908
     13 C          62.2941   89.1063   11.8902 C.2     1  UNL1        0.3394
     14 O          60.8283   89.3140   12.1314 O.2     1  UNL1       -0.2452
     15 O          62.8607   87.7176   11.8654 O.3     1  UNL1       -0.4456
     16 C          62.1250   86.6201   11.1556 C.3     1  UNL1        0.2087
     17 C          62.6539   85.2169   11.1921 C.3     1  UNL1        0.0445
     18 C          63.2721   84.6163    9.9644 C.3     1  UNL1        0.0210
     19 C          63.8011   83.2131   10.0008 C.3     1  UNL1        0.0722
     20 N          63.7117   82.4105   11.2649 N.3     1  UNL1       -0.2727
     21 C          63.0935   83.0110   12.4925 C.3     1  UNL1        0.0722
     22 C          62.5646   84.4142   12.4561 C.3     1  UNL1        0.0210
     23 C          63.4082   83.1754   11.2933 C.3     1  UNL1        0.0722
     24 C          62.9299   84.4442   11.2603 C.3     1  UNL1        0.0210
@<TRIPOS>BOND
     1     1     2    1
     2     2     3    2
     3     3     4    1
     4     4    11    1
     5    11    12    3
     6     4     5    2
     7     5     6    1
     8     6     7    2
     9     7     8    1
    10     8     9    2
    11     9    13    1
    12    13    14    2
    13    13    15    1
    14    15    16    1
    15    16    17    1
    16    17    18    1
    17    18    19    1
    18    19    20    1
    19    20    21    1
    20    21    22    1
    21    20    23    1
    22    23    24    1
    23     9    10    1
    24    10     2    1
    25    10     6    1
    26    22    17    1
    27    24    17    1
@<TRIPOS>MOLECULE
*****
 24 27 0 0 0
SMALL
GASTEIGER

@<TRIPOS>ATOM
      1 C          66.2138   91.4473   15.0052 C.3     1  UNL1        0.0271
      2 C          65.7811   91.6971   13.5909 C.2     1  UNL1       -0.0337
      3 C          66.6471   92.5090   12.6739 C.2     1  UNL1        0.0025
      4 C          66.2145   92.7588   11.2596 C.2     1  UNL1        0.0690
      5 C          64.9157   92.1968   10.7622 C.2     1  UNL1        0.0256
      6 C          64.0497   91.3849   11.6792 C.2     1  UNL1        0.0674
      7 N          62.7273   90.7078   11.4725 N.2     1  UNL1       -0.2476
      8 C          62.3427   90.0394   12.7591 C.2     1  UNL1        0.1013
      9 C          63.4274   90.3035   13.7610 C.2     1  UNL1        0.0814
     10 C          64.4824   91.1351   13.0935 C.3     1  UNL1        0.0886
     11 C          67.0806   93.5707   10.3426 C.1     1  UNL1        0.1004
     12 N          67.9466   94.3825    9.4256 N.1     1  UNL1       -0.1908
     13 C          63.4526   89.8208   15.1809 C.2     1  UNL1        0.3394
     14 O          63.3288   90.8018   16.3089 O.2     1  UNL1       -0.2452
     15 O          63.6017   88.3571   15.4730 O.3     1  UNL1       -0.4456
     16 C          64.5157   87.5143   14.6338 C.3     1  UNL1        0.2087
     17 C          64.1102   86.1221   14.2497 C.3     1  UNL1        0.0445
     18 C          63.3426   85.8874   12.9824 C.3     1  UNL1        0.0210
     19 C          62.9370   84.4953   12.5982 C.3     1  UNL1        0.0722
     20 N          63.2990   83.3379   13.4812 N.3     1  UNL1       -0.2727
     21 C          64.0665   83.5727   14.7484 C.3     1  UNL1        0.0722
     22 C          64.4721   84.9648   15.1327 C.3     1  UNL1        0.0210
     23 C          63.5432   84.0828   13.7335 C.3     1  UNL1        0.0722
     24 C          63.9099   85.3415   14.0809 C.3     1  UNL1        0.0210
@<TRIPOS>BOND
     1     1     2    1
     2     2     3    2
     3     3     4    1
     4     4    11    1
     5    11    12    3
     6     4     5    2
     7     5     6    1
     8     6     7    2
     9     7     8    1
    10     8     9    2
    11     9    13    1
    12    13    14    2
    13    13    15    1
    14    15    16    1
    15    16    17    1
    16    17    18    1
    17    18    19    1
    18    19    20    1
    19    20    21    1
    20    21    22    1
    21    20    23    1
    22    23    24    1
    23     9    10    1
    24    10     2    1
    25    10     6    1
    26    22    17    1
    27    24    17    1
@<TRIPOS>MOLECULE
*****
 24 27 0 0 0
SMALL
GASTEIGER

@<TRIPOS>ATOM
      1 C          62.9788   91.1136   11.0981 C.3     1  UNL1        0.0271
      2 C          62.7725   89.6297   11.1708 C.2     1  UNL1       -0.0337
      3 C          62.0530   88.9173   10.0640 C.2     1  UNL1        0.0025
      4 C          61.8467   87.4335   10.1367 C.2     1  UNL1        0.0690
      5 C          62.3599   86.6617   11.3162 C.2     1  UNL1        0.0256
      6 C          63.0795   87.3740   12.4229 C.2     1  UNL1        0.0674
      7 N          63.6926   86.8828   13.7007 N.2     1  UNL1       -0.2476
      8 C          64.2778   88.0632   14.4177 C.2     1  UNL1        0.1013
      9 C          64.0264   89.2839   13.5831 C.2     1  UNL1        0.0814
     10 C          63.2857   88.8580   12.3502 C.3     1  UNL1        0.0886
     11 C          61.1272   86.7211    9.0299 C.1     1  UNL1        0.1004
     12 N          60.4077   86.0088    7.9231 N.1     1  UNL1       -0.1908
     13 C          64.4425   90.6847   13.9219 C.2     1  UNL1        0.3394
     14 O          63.5908   91.5212   14.8301 O.2     1  UNL1       -0.2452
     15 O          65.7104   91.2489   13.3525 O.3     1  UNL1       -0.4456
     16 C          65.7335   92.6495   12.8161 C.3     1  UNL1        0.2087
     17 C          66.4448   92.9484   11.5298 C.3     1  UNL1        0.0445
     18 C          67.5589   92.0581   11.0645 C.3     1  UNL1        0.0210
     19 C          68.2703   92.3570    9.7782 C.3     1  UNL1        0.0722
     20 N          67.8677   93.5461    8.9572 N.3     1  UNL1       -0.2727
     21 C          66.7537   94.4363    9.4225 C.3     1  UNL1        0.0722
     22 C          66.0423   94.1375   10.7088 C.3     1  UNL1        0.0210
     23 C          67.4484   93.4228    9.6551 C.3     1  UNL1        0.0722
     24 C          66.8052   93.1525   10.8182 C.3     1  UNL1        0.0210
@<TRIPOS>BOND
     1     1     2    1
     2     2     3    2
     3     3     4    1
     4     4    11    1
     5    11    12    3
     6     4     5    2
     7     5     6    1
     8     6     7    2
     9     7     8    1
    10     8     9    2
    11     9    13    1
    12    13    14    2
    13    13    15    1
    14    15    16    1
    15    16    17    1
    16    17    18    1
    17    18    19    1
    18    19    20    1
    19    20    21    1
    20    21    22    1
    21    20    23    1
    22    23    24    1
    23     9    10    1
    24    10     2    1
    25    10     6    1
    26    22    17    1
    27    24    17    1
@<TRIPOS>MOLECULE
*****
 24 27 0 0 0
SMALL
GASTEIGER

@<TRIPOS>ATOM
      1 C          62.8889   90.9148    9.9751 C.3     1  UNL1        0.0271
      2 C          63.8854   91.5397   10.9061 C.2     1  UNL1       -0.0337
      3 C          64.6541   92.7540   10.4767 C.2     1  UNL1        0.0025
      4 C          65.6505   93.3788   11.4076 C.2     1  UNL1        0.0690
      5 C          65.8783   92.7893   12.7680 C.2     1  UNL1        0.0256
      6 C          65.1097   91.5749   13.1974 C.2     1  UNL1        0.0674
      7 N          65.1206   90.7775   14.4678 N.2     1  UNL1       -0.2476
      8 C          64.1309   89.6598   14.3220 C.2     1  UNL1        0.1013
      9 C          63.5083   89.7665   12.9615 C.2     1  UNL1        0.0814
     10 C          64.1132   90.9501   12.2664 C.3     1  UNL1        0.0886
     11 C          66.4192   94.5933   10.9781 C.1     1  UNL1        0.1004
     12 N          67.1879   95.8077   10.5487 N.1     1  UNL1       -0.1908
     13 C          62.4641   88.8504   12.3955 C.2     1  UNL1        0.3394
     14 O          61.0291   89.2849   12.3521 O.2     1  UNL1       -0.2452
     15 O          62.8549   87.4998   11.8728 O.3     1  UNL1       -0.4456
     16 C          61.7981   86.5351   11.4231 C.3     1  UNL1        0.2087
     17 C          61.6894   86.1635    9.9739 C.3     1  UNL1        0.0445
     18 C          62.8120   85.4298    9.3016 C.3     1  UNL1        0.0210
     19 C          62.7034   85.0582    7.8525 C.3     1  UNL1        0.0722
     20 N          61.4723   85.4202    7.0755 N.3     1  UNL1       -0.2727
     21 C          60.3499   86.1537    7.7478 C.3     1  UNL1        0.0722
     22 C          60.4584   86.5254    9.1970 C.3     1  UNL1        0.0210
     23 C          61.4861   85.6451    7.8675 C.3     1  UNL1        0.0722
     24 C          61.5843   85.9811    9.1779 C.3     1  UNL1        0.0210
@<TRIPOS>BOND
     1     1     2    1
     2     2     3    2
     3     3     4    1
     4     4    11    1
     5    11    12    3
     6     4     5    2
     7     5     6    1
     8     6     7    2
     9     7     8    1
    10     8     9    2
    11     9    13    1
    12    13    14    2
    13    13    15    1
    14    15    16    1
    15    16    17    1
    16    17    18    1
    17    18    19    1
    18    19    20    1
    19    20    21    1
    20    21    22    1
    21    20    23    1
    22    23    24    1
    23     9    10    1
    24    10     2    1
    25    10     6    1
    26    22    17    1
    27    24    17    1
@<TRIPOS>MOLECULE
*****
 24 27 0 0 0
SMALL
GASTEIGER

@<TRIPOS>ATOM
      1 C          62.3301   90.8720   10.5016 C.3     1  UNL1        0.0271
      2 C          62.1997   89.3791   10.5675 C.2     1  UNL1       -0.0337
      3 C          61.4727   88.6411    9.4826 C.2     1  UNL1        0.0025
      4 C          61.3424   87.1483    9.5485 C.2     1  UNL1        0.0690
      5 C          61.9390   86.3933   10.6992 C.2     1  UNL1        0.0256
      6 C          62.6660   87.1313   11.7840 C.2     1  UNL1        0.0674
      7 N          63.3525   86.6606   13.0319 N.2     1  UNL1       -0.2476
      8 C          63.9071   87.8626   13.7373 C.2     1  UNL1        0.1013
      9 C          63.5634   89.0761   12.9254 C.2     1  UNL1        0.0814
     10 C          62.7963   88.6242   11.7182 C.3     1  UNL1        0.0886
     11 C          60.6153   86.4104    8.4635 C.1     1  UNL1        0.1004
     12 N          59.8883   85.6724    7.3787 N.1     1  UNL1       -0.1908
     13 C          63.9236   90.4929   13.2616 C.2     1  UNL1        0.3394
     14 O          63.3741   91.1321   14.5024 O.2     1  UNL1       -0.2452
     15 O          64.8331   91.2705   12.3571 O.3     1  UNL1       -0.4456
     16 C          65.4709   92.5377   12.8442 C.3     1  UNL1        0.2087
     17 C          66.5564   92.4818   13.8780 C.3     1  UNL1        0.0445
     18 C          67.9426   92.0617   13.4878 C.3     1  UNL1        0.0210
     19 C          69.0282   92.0059   14.5215 C.3     1  UNL1        0.0722
     20 N          68.7275   92.3700   15.9453 N.3     1  UNL1       -0.2727
     21 C          67.3414   92.7900   16.3354 C.3     1  UNL1        0.0722
     22 C          66.2558   92.8459   15.3017 C.3     1  UNL1        0.0210
     23 C          68.1000   92.4159   15.4142 C.3     1  UNL1        0.0722
     24 C          67.1184   92.4664   14.4795 C.3     1  UNL1        0.0210
@<TRIPOS>BOND
     1     1     2    1
     2     2     3    2
     3     3     4    1
     4     4    11    1
     5    11    12    3
     6     4     5    2
     7     5     6    1
     8     6     7    2
     9     7     8    1
    10     8     9    2
    11     9    13    1
    12    13    14    2
    13    13    15    1
    14    15    16    1
    15    16    17    1
    16    17    18    1
    17    18    19    1
    18    19    20    1
    19    20    21    1
    20    21    22    1
    21    20    23    1
    22    23    24    1
    23     9    10    1
    24    10     2    1
    25    10     6    1
    26    22    17    1
    27    24    17    1
@<TRIPOS>MOLECULE
*****
 24 27 0 0 0
SMALL
GASTEIGER

@<TRIPOS>ATOM
      1 C          64.1005   89.6299   15.0362 C.3     1  UNL1        0.0271
      2 C          64.8142   90.7673   14.3676 C.2     1  UNL1       -0.0337
      3 C          65.8504   91.5485   15.1200 C.2     1  UNL1        0.0025
      4 C          66.5640   92.6858   14.4515 C.2     1  UNL1        0.0690
      5 C          66.2416   93.0420   13.0305 C.2     1  UNL1        0.0256
      6 C          65.2054   92.2609   12.2781 C.2     1  UNL1        0.0674
      7 N          64.6800   92.3790   10.8781 N.2     1  UNL1       -0.2476
      8 C          63.6415   91.3147   10.6815 C.2     1  UNL1        0.1013
      9 C          63.5251   90.5387   11.9599 C.2     1  UNL1        0.0814
     10 C          64.4917   91.1235   12.9467 C.3     1  UNL1        0.0886
     11 C          67.6003   93.4670   15.2039 C.1     1  UNL1        0.1004
     12 N          68.6365   94.2482   15.9563 N.1     1  UNL1       -0.1908
     13 C          62.6039   89.3812   12.2080 C.2     1  UNL1        0.3394
     14 O          63.0590   87.9833   11.9101 O.2     1  UNL1       -0.2452
     15 O          61.2276   89.6216   12.7539 O.3     1  UNL1       -0.4456
     16 C          60.0511   89.6745   11.8251 C.3     1  UNL1        0.2087
     17 C          60.0931   88.9385   10.5187 C.3     1  UNL1        0.0445
     18 C          60.0245   89.6984    9.2272 C.3     1  UNL1        0.0210
     19 C          60.0665   88.9624    7.9208 C.3     1  UNL1        0.0722
     20 N          60.1770   87.4665    7.9060 N.3     1  UNL1       -0.2727
     21 C          60.2456   86.7067    9.1974 C.3     1  UNL1        0.0722
     22 C          60.2036   87.4426   10.5038 C.3     1  UNL1        0.0210
     23 C          60.1575   87.8260    8.6465 C.3     1  UNL1        0.0722
     24 C          60.1195   88.4915    9.8277 C.3     1  UNL1        0.0210
@<TRIPOS>BOND
     1     1     2    1
     2     2     3    2
     3     3     4    1
     4     4    11    1
     5    11    12    3
     6     4     5    2
     7     5     6    1
     8     6     7    2
     9     7     8    1
    10     8     9    2
    11     9    13    1
    12    13    14    2
    13    13    15    1
    14    15    16    1
    15    16    17    1
    16    17    18    1
    17    18    19    1
    18    19    20    1
    19    20    21    1
    20    21    22    1
    21    20    23    1
    22    23    24    1
    23     9    10    1
    24    10     2    1
    25    10     6    1
    26    22    17    1
    27    24    17    1
@<TRIPOS>MOLECULE
*****
 24 27 0 0 0
SMALL
GASTEIGER

@<TRIPOS>ATOM
      1 C          63.5796   90.8494   10.6401 C.3     1  UNL1        0.0271
      2 C          64.4868   91.8280   11.3253 C.2     1  UNL1       -0.0337
      3 C          65.1081   92.9482   10.5449 C.2     1  UNL1        0.0025
      4 C          66.0152   93.9267   11.2300 C.2     1  UNL1        0.0690
      5 C          66.3011   93.7851   12.6958 C.2     1  UNL1        0.0256
      6 C          65.6798   92.6649   13.4762 C.2     1  UNL1        0.0674
      7 N          65.7760   92.2744   14.9213 N.2     1  UNL1       -0.2476
      8 C          64.9282   91.0546   15.1292 C.2     1  UNL1        0.1013
      9 C          64.3081   90.6911   13.8126 C.2     1  UNL1        0.0814
     10 C          64.7726   91.6863   12.7910 C.3     1  UNL1        0.0886
     11 C          66.6365   95.0469   10.4495 C.1     1  UNL1        0.1004
     12 N          67.2578   96.1671    9.6690 N.1     1  UNL1       -0.1908
     13 C          63.3855   89.5353   13.5617 C.2     1  UNL1        0.3394
     14 O          61.9104   89.7695   13.4238 O.2     1  UNL1       -0.2452
     15 O          63.9381   88.1453   13.4488 O.3     1  UNL1       -0.4456
     16 C          64.4079   87.4231   14.6766 C.3     1  UNL1        0.2087
     17 C          64.0979   85.9663   14.8546 C.3     1  UNL1        0.0445
     18 C          63.0879   85.5338   15.8759 C.3     1  UNL1        0.0210
     19 C          62.7778   84.0771   16.0540 C.3     1  UNL1        0.0722
     20 N          63.4777   83.0527   15.2107 N.3     1  UNL1       -0.2727
     21 C          64.4876   83.4852   14.1894 C.3     1  UNL1        0.0722
     22 C          64.7977   84.9420   14.0114 C.3     1  UNL1        0.0210
     23 C          63.6808   83.8394   15.0769 C.3     1  UNL1        0.0722
     24 C          63.9611   85.1567   14.9160 C.3     1  UNL1        0.0210
@<TRIPOS>BOND
     1     1     2    1
     2     2     3    2
     3     3     4    1
     4     4    11    1
     5    11    12    3
     6     4     5    2
     7     5     6    1
     8     6     7    2
     9     7     8    1
    10     8     9    2
    11     9    13    1
    12    13    14    2
    13    13    15    1
    14    15    16    1
    15    16    17    1
    16    17    18    1
    17    18    19    1
    18    19    20    1
    19    20    21    1
    20    21    22    1
    21    20    23    1
    22    23    24    1
    23     9    10    1
    24    10     2    1
    25    10     6    1
    26    22    17    1
    27    24    17    1
@<TRIPOS>MOLECULE
*****
 24 27 0 0 0
SMALL
GASTEIGER

@<TRIPOS>ATOM
      1 C          63.1484   90.8694   10.0875 C.3     1  UNL1        0.0271
      2 C          64.0853   91.6203   10.9866 C.2     1  UNL1       -0.0337
      3 C          64.7771   92.8538   10.4867 C.2     1  UNL1        0.0025
      4 C          65.7139   93.6047   11.3857 C.2     1  UNL1        0.0690
      5 C          65.9591   93.1221   12.7848 C.2     1  UNL1        0.0256
      6 C          65.2673   91.8886   13.2846 C.2     1  UNL1        0.0674
      7 N          65.3115   91.1784   14.6050 N.2     1  UNL1       -0.2476
      8 C          64.4020   89.9885   14.5220 C.2     1  UNL1        0.1013
      9 C          63.7956   89.9634   13.1503 C.2     1  UNL1        0.0814
     10 C          64.3304   91.1377   12.3855 C.3     1  UNL1        0.0886
     11 C          66.4058   94.8383   10.8859 C.1     1  UNL1        0.1004
     12 N          67.0976   96.0718   10.3860 N.1     1  UNL1       -0.1908
     13 C          62.8248   88.9430   12.6340 C.2     1  UNL1        0.3394
     14 O          61.3977   89.3276   12.3784 O.2     1  UNL1       -0.2452
     15 O          63.2812   87.5381   12.3733 O.3     1  UNL1       -0.4456
     16 C          62.4065   86.5968   11.5995 C.3     1  UNL1        0.2087
     17 C          62.7618   85.1420   11.5137 C.3     1  UNL1        0.0445
     18 C          62.5672   84.2511   12.7048 C.3     1  UNL1        0.0210
     19 C          62.9224   82.7962   12.6191 C.3     1  UNL1        0.0722
     20 N          63.4722   82.2324   11.3423 N.3     1  UNL1       -0.2727
     21 C          63.6667   83.1233   10.1514 C.3     1  UNL1        0.0722
     22 C          63.3115   84.5782   10.2371 C.3     1  UNL1        0.0210
     23 C          63.2920   83.0358   11.3414 C.3     1  UNL1        0.0722
     24 C          62.9708   84.3513   11.4189 C.3     1  UNL1        0.0210
@<TRIPOS>BOND
     1     1     2    1
     2     2     3    2
     3     3     4    1
     4     4    11    1
     5    11    12    3
     6     4     5    2
     7     5     6    1
     8     6     7    2
     9     7     8    1
    10     8     9    2
    11     9    13    1
    12    13    14    2
    13    13    15    1
    14    15    16    1
    15    16    17    1
    16    17    18    1
    17    18    19    1
    18    19    20    1
    19    20    21    1
    20    21    22    1
    21    20    23    1
    22    23    24    1
    23     9    10    1
    24    10     2    1
    25    10     6    1
    26    22    17    1
    27    24    17    1
