@<TRIPOS>MOLECULE
*****
 23 26 0 0 0
SMALL
GASTEIGER

@<TRIPOS>ATOM
      1 C          62.1891   86.9767   10.8920 C.ar    1  UNL1        0.1512
      2 N          62.3955   87.0590    9.4085 N.ar    1  UNL1       -0.2076
      3 C          62.7991   85.8366    8.6386 C.ar    1  UNL1        0.2002
      4 N          62.9963   84.5319    9.3520 N.ar    1  UNL1       -0.2207
      5 C          62.7899   84.4497   10.8355 C.ar    1  UNL1        0.1226
      6 C          62.3863   85.6721   11.6054 C.ar    1  UNL1        0.1515
      7 N          62.2566   85.2883   13.0497 N.ar    1  UNL1       -0.1606
      8 N          62.5800   83.8287   13.1723 N.ar    1  UNL1       -0.2266
      9 C          62.6169   82.9046   14.3533 C.ar    1  UNL1        0.1004
     10 C          62.9834   81.4622   14.1657 C.ar    1  UNL1        0.0207
     11 C          63.3131   80.9440   12.7972 C.ar    1  UNL1        0.0032
     12 C          63.2762   81.8680   11.6163 C.ar    1  UNL1        0.0208
     13 C          62.9096   83.3104   11.8038 C.ar    1  UNL1        0.1021
     14 N          61.7855   88.1991   11.6619 N.pl3   1  UNL1       -0.3184
     15 H          60.8958   88.2456   12.0808 H       1  UNL1        0.1482
     16 C          65.1375   92.8308   11.2701 C.3     1  UNL1        0.0000
     17 C          64.6415   91.6541   12.0571 C.3     1  UNL1        0.0001
     18 C          65.6041   92.2419   13.0460 C.3     1  UNL1        0.0000
     19 C          64.4799   90.6815   13.1876 C.3     1  UNL1        0.0017
     20 C          63.5279   89.5298   13.0559 C.3     1  UNL1        0.0195
     21 C          62.7375   89.3507   11.7937 C.3     1  UNL1        0.0704
     22 C          62.8991   90.3233   10.6631 C.3     1  UNL1        0.0195
     23 C          63.8511   91.4750   10.7949 C.3     1  UNL1        0.0017
@<TRIPOS>BOND
     1    16    17    1
     2    17    18    1
     3    17    19    1
     4    19    20    1
     5    20    21    1
     6    21    14    1
     7    14     1    1
     8     1     2   ar
     9     2     3   ar
    10     3     4   ar
    11     4     5   ar
    12     5     6   ar
    13     6     7   ar
    14     7     8   ar
    15     8     9   ar
    16     9    10   ar
    17    10    11   ar
    18    11    12   ar
    19    12    13   ar
    20    21    22    1
    21    22    23    1
    22    23    17    1
    23     6     1   ar
    24    13     8   ar
    25    13     5   ar
    26    14    15    1
@<TRIPOS>MOLECULE
*****
 23 26 0 0 0
SMALL
GASTEIGER

@<TRIPOS>ATOM
      1 C          61.7453   88.2267   11.1582 C.ar    1  UNL1        0.1512
      2 N          61.0470   88.4210    9.8450 N.ar    1  UNL1       -0.2076
      3 C          60.9415   87.2810    8.8758 C.ar    1  UNL1        0.2002
      4 N          61.5342   85.9468    9.2198 N.ar    1  UNL1       -0.2207
      5 C          62.2326   85.7524   10.5330 C.ar    1  UNL1        0.1226
      6 C          62.3381   86.8924   11.5022 C.ar    1  UNL1        0.1515
      7 N          63.0797   86.4053   12.7117 N.ar    1  UNL1       -0.1606
      8 N          63.4324   84.9643   12.4900 N.ar    1  UNL1       -0.2266
      9 C          64.1627   83.9675   13.3402 C.ar    1  UNL1        0.1004
     10 C          64.3695   82.5672   12.8439 C.ar    1  UNL1        0.0207
     11 C          63.8459   82.1637   11.4974 C.ar    1  UNL1        0.0032
     12 C          63.1156   83.1605   10.6472 C.ar    1  UNL1        0.0208
     13 C          62.9089   84.5608   11.1435 C.ar    1  UNL1        0.1021
     14 N          61.8509   89.3666   12.1274 N.pl3   1  UNL1       -0.3184
     15 H          61.1793   89.4709   12.8397 H       1  UNL1        0.1482
     16 C          65.8769   93.2104   10.7642 C.3     1  UNL1        0.0000
     17 C          65.2368   92.3100   11.7789 C.3     1  UNL1        0.0001
     18 C          66.3260   92.9128   12.6158 C.3     1  UNL1        0.0000
     19 C          64.9751   91.6190   13.0844 C.3     1  UNL1        0.0017
     20 C          63.8464   90.6378   13.2005 C.3     1  UNL1        0.0195
     21 C          62.9795   90.3477   12.0113 C.3     1  UNL1        0.0704
     22 C          63.2412   91.0387   10.7058 C.3     1  UNL1        0.0195
     23 C          64.3699   92.0198   10.5897 C.3     1  UNL1        0.0017
@<TRIPOS>BOND
     1    16    17    1
     2    17    18    1
     3    17    19    1
     4    19    20    1
     5    20    21    1
     6    21    14    1
     7    14     1    1
     8     1     2   ar
     9     2     3   ar
    10     3     4   ar
    11     4     5   ar
    12     5     6   ar
    13     6     7   ar
    14     7     8   ar
    15     8     9   ar
    16     9    10   ar
    17    10    11   ar
    18    11    12   ar
    19    12    13   ar
    20    21    22    1
    21    22    23    1
    22    23    17    1
    23     6     1   ar
    24    13     8   ar
    25    13     5   ar
    26    14    15    1
@<TRIPOS>MOLECULE
*****
 23 26 0 0 0
SMALL
GASTEIGER

@<TRIPOS>ATOM
      1 C          61.4811   88.1975   11.1019 C.ar    1  UNL1        0.1512
      2 N          60.8947   88.7550    9.8388 N.ar    1  UNL1       -0.2076
      3 C          61.3365   90.0972    9.3354 C.ar    1  UNL1        0.2002
      4 N          62.3646   90.8819   10.0952 N.ar    1  UNL1       -0.2207
      5 C          62.9510   90.3245   11.3582 C.ar    1  UNL1        0.1226
      6 C          62.5093   88.9823   11.8616 C.ar    1  UNL1        0.1515
      7 N          63.2593   88.6924   13.1279 N.ar    1  UNL1       -0.1606
      8 N          64.1646   89.8554   13.4071 N.ar    1  UNL1       -0.2266
      9 C          65.1377   90.1262   14.5159 C.ar    1  UNL1        0.1004
     10 C          65.9204   91.4057   14.5310 C.ar    1  UNL1        0.0207
     11 C          65.7298   92.4144   13.4373 C.ar    1  UNL1        0.0032
     12 C          64.7567   92.1436   12.3285 C.ar    1  UNL1        0.0208
     13 C          63.9740   90.8641   12.3134 C.ar    1  UNL1        0.1021
     14 N          61.0394   86.8554   11.6053 N.pl3   1  UNL1       -0.3184
     15 H          60.1500   86.7514   12.0144 H       1  UNL1        0.1482
     16 C          64.5088   82.5170   10.1971 C.3     1  UNL1        0.0000
     17 C          63.7794   83.3040   11.2452 C.3     1  UNL1        0.0001
     18 C          64.4495   82.2773   12.1096 C.3     1  UNL1        0.0000
     19 C          63.2828   83.7345   12.5936 C.3     1  UNL1        0.0017
     20 C          62.3694   84.9183   12.7136 C.3     1  UNL1        0.0195
     21 C          61.9527   85.6716   11.4853 C.3     1  UNL1        0.0704
     22 C          62.4494   85.2412   10.1368 C.3     1  UNL1        0.0195
     23 C          63.3627   84.0574   10.0168 C.3     1  UNL1        0.0017
@<TRIPOS>BOND
     1    16    17    1
     2    17    18    1
     3    17    19    1
     4    19    20    1
     5    20    21    1
     6    21    14    1
     7    14     1    1
     8     1     2   ar
     9     2     3   ar
    10     3     4   ar
    11     4     5   ar
    12     5     6   ar
    13     6     7   ar
    14     7     8   ar
    15     8     9   ar
    16     9    10   ar
    17    10    11   ar
    18    11    12   ar
    19    12    13   ar
    20    21    22    1
    21    22    23    1
    22    23    17    1
    23     6     1   ar
    24    13     8   ar
    25    13     5   ar
    26    14    15    1
@<TRIPOS>MOLECULE
*****
 23 26 0 0 0
SMALL
GASTEIGER

@<TRIPOS>ATOM
      1 C          63.7638   86.7884   15.2802 C.ar    1  UNL1        0.1512
      2 N          63.1656   87.0469   16.6311 N.ar    1  UNL1       -0.2076
      3 C          62.3506   85.9839   17.3064 C.ar    1  UNL1        0.2002
      4 N          62.1339   84.6624   16.6306 N.ar    1  UNL1       -0.2207
      5 C          62.7322   84.4038   15.2796 C.ar    1  UNL1        0.1226
      6 C          63.5472   85.4668   14.6044 C.ar    1  UNL1        0.1515
      7 N          64.0086   84.9277   13.2829 N.ar    1  UNL1       -0.1606
      8 N          63.4788   83.5315   13.1413 N.ar    1  UNL1       -0.2266
      9 C          63.6127   82.5131   12.0482 C.ar    1  UNL1        0.1004
     10 C          62.9578   81.1711   12.1892 C.ar    1  UNL1        0.0207
     11 C          62.1690   80.8473   13.4232 C.ar    1  UNL1        0.0032
     12 C          62.0350   81.8657   14.5164 C.ar    1  UNL1        0.0208
     13 C          62.6899   83.2077   14.3754 C.ar    1  UNL1        0.1021
     14 N          64.5788   87.8513   14.6050 N.pl3   1  UNL1       -0.3184
     15 H          65.4864   88.0550   14.9275 H       1  UNL1        0.1482
     16 C          62.8743   91.4902   10.5190 C.3     1  UNL1        0.0000
     17 C          62.8753   90.1095   11.1052 C.3     1  UNL1        0.0001
     18 C          62.0062   89.8819    9.9039 C.3     1  UNL1        0.0000
     19 C          62.5744   88.6496   11.2741 C.3     1  UNL1        0.0017
     20 C          63.1423   87.8969   12.4407 C.3     1  UNL1        0.0195
     21 C          64.0110   88.6040   13.4384 C.3     1  UNL1        0.0704
     22 C          64.3119   90.0638   13.2695 C.3     1  UNL1        0.0195
     23 C          63.7440   90.8165   12.1029 C.3     1  UNL1        0.0017
@<TRIPOS>BOND
     1    16    17    1
     2    17    18    1
     3    17    19    1
     4    19    20    1
     5    20    21    1
     6    21    14    1
     7    14     1    1
     8     1     2   ar
     9     2     3   ar
    10     3     4   ar
    11     4     5   ar
    12     5     6   ar
    13     6     7   ar
    14     7     8   ar
    15     8     9   ar
    16     9    10   ar
    17    10    11   ar
    18    11    12   ar
    19    12    13   ar
    20    21    22    1
    21    22    23    1
    22    23    17    1
    23     6     1   ar
    24    13     8   ar
    25    13     5   ar
    26    14    15    1
@<TRIPOS>MOLECULE
*****
 23 26 0 0 0
SMALL
GASTEIGER

@<TRIPOS>ATOM
      1 C          64.2250   87.4900   14.1901 C.ar    1  UNL1        0.1512
      2 N          64.6504   88.8367   14.6955 N.ar    1  UNL1       -0.2076
      3 C          64.2281   90.0785   13.9678 C.ar    1  UNL1        0.2002
      4 N          63.3804   89.9736   12.7347 N.ar    1  UNL1       -0.2207
      5 C          62.9550   88.6269   12.2294 C.ar    1  UNL1        0.1226
      6 C          63.3773   87.3851   12.9571 C.ar    1  UNL1        0.1515
      7 N          62.8087   86.2043   12.2274 N.ar    1  UNL1       -0.1606
      8 N          62.0350   86.7163   11.0488 N.ar    1  UNL1       -0.2266
      9 C          61.2598   86.0126    9.9746 C.ar    1  UNL1        0.1004
     10 C          60.5751   86.8062    8.9016 C.ar    1  UNL1        0.0207
     11 C          60.6655   88.3035    8.9028 C.ar    1  UNL1        0.0032
     12 C          61.4406   89.0072    9.9770 C.ar    1  UNL1        0.0208
     13 C          62.1254   88.2136   11.0500 C.ar    1  UNL1        0.1021
     14 N          64.6474   86.2482   14.9178 N.pl3   1  UNL1       -0.3184
     15 H          65.3203   86.3024   15.6344 H       1  UNL1        0.1482
     16 C          61.6519   81.4215   14.1623 C.3     1  UNL1        0.0000
     17 C          62.8384   82.2752   13.8258 C.3     1  UNL1        0.0001
     18 C          63.1012   81.0999   12.9315 C.3     1  UNL1        0.0000
     19 C          64.1163   82.7208   13.1787 C.3     1  UNL1        0.0017
     20 C          64.7192   84.0452   13.5427 C.3     1  UNL1        0.0195
     21 C          64.0444   84.9240   14.5538 C.3     1  UNL1        0.0704
     22 C          62.7666   84.4784   15.2009 C.3     1  UNL1        0.0195
     23 C          62.1636   83.1540   14.8369 C.3     1  UNL1        0.0017
@<TRIPOS>BOND
     1    16    17    1
     2    17    18    1
     3    17    19    1
     4    19    20    1
     5    20    21    1
     6    21    14    1
     7    14     1    1
     8     1     2   ar
     9     2     3   ar
    10     3     4   ar
    11     4     5   ar
    12     5     6   ar
    13     6     7   ar
    14     7     8   ar
    15     8     9   ar
    16     9    10   ar
    17    10    11   ar
    18    11    12   ar
    19    12    13   ar
    20    21    22    1
    21    22    23    1
    22    23    17    1
    23     6     1   ar
    24    13     8   ar
    25    13     5   ar
    26    14    15    1
@<TRIPOS>MOLECULE
*****
 23 26 0 0 0
SMALL
GASTEIGER

@<TRIPOS>ATOM
      1 C          62.2025   88.7612   11.4835 C.ar    1  UNL1        0.1512
      2 N          61.6726   89.1603   10.1382 N.ar    1  UNL1       -0.2076
      3 C          62.1407   90.4319    9.4949 C.ar    1  UNL1        0.2002
      4 N          63.1386   91.3045   10.1970 N.ar    1  UNL1       -0.2207
      5 C          63.6684   90.9054   11.5424 C.ar    1  UNL1        0.1226
      6 C          63.2003   89.6337   12.1856 C.ar    1  UNL1        0.1515
      7 N          63.8946   89.5007   13.5086 N.ar    1  UNL1       -0.1606
      8 N          64.7917   90.6902   13.6830 N.ar    1  UNL1       -0.2266
      9 C          65.7178   91.0949   14.7914 C.ar    1  UNL1        0.1004
     10 C          66.5041   92.3678   14.6845 C.ar    1  UNL1        0.0207
     11 C          66.3643   93.2359   13.4693 C.ar    1  UNL1        0.0032
     12 C          65.4382   92.8312   12.3609 C.ar    1  UNL1        0.0208
     13 C          64.6519   91.5583   12.4678 C.ar    1  UNL1        0.1021
     14 N          61.7344   87.4895   12.1267 N.pl3   1  UNL1       -0.3184
     15 H          60.9733   87.5048   12.7511 H       1  UNL1        0.1482
     16 C          64.5725   82.5161   11.8973 C.3     1  UNL1        0.0000
     17 C          63.8089   83.6046   11.2029 C.3     1  UNL1        0.0001
     18 C          64.1048   82.7090   10.0365 C.3     1  UNL1        0.0000
     19 C          63.1481   84.3820   10.1033 C.3     1  UNL1        0.0017
     20 C          62.4566   85.6770   10.4113 C.3     1  UNL1        0.0195
     21 C          62.4259   86.1946   11.8188 C.3     1  UNL1        0.0704
     22 C          63.0867   85.4172   12.9184 C.3     1  UNL1        0.0195
     23 C          63.7782   84.1222   12.6104 C.3     1  UNL1        0.0017
@<TRIPOS>BOND
     1    16    17    1
     2    17    18    1
     3    17    19    1
     4    19    20    1
     5    20    21    1
     6    21    14    1
     7    14     1    1
     8     1     2   ar
     9     2     3   ar
    10     3     4   ar
    11     4     5   ar
    12     5     6   ar
    13     6     7   ar
    14     7     8   ar
    15     8     9   ar
    16     9    10   ar
    17    10    11   ar
    18    11    12   ar
    19    12    13   ar
    20    21    22    1
    21    22    23    1
    22    23    17    1
    23     6     1   ar
    24    13     8   ar
    25    13     5   ar
    26    14    15    1
@<TRIPOS>MOLECULE
*****
 23 26 0 0 0
SMALL
GASTEIGER

@<TRIPOS>ATOM
      1 C          63.2346   91.0725   11.6973 C.ar    1  UNL1        0.1512
      2 N          63.4861   91.5250   10.2895 N.ar    1  UNL1       -0.2076
      3 C          64.6590   92.4088    9.9841 C.ar    1  UNL1        0.2002
      4 N          65.5804   92.8400   11.0864 N.ar    1  UNL1       -0.2207
      5 C          65.3289   92.3874   12.4942 C.ar    1  UNL1        0.1226
      6 C          64.1560   91.5037   12.7997 C.ar    1  UNL1        0.1515
      7 N          64.1614   91.2189   14.2724 N.ar    1  UNL1       -0.1606
      8 N          65.3376   91.9266   14.8771 N.ar    1  UNL1       -0.2266
      9 C          65.8448   92.0067   16.2864 C.ar    1  UNL1        0.1004
     10 C          67.0735   92.8090   16.5968 C.ar    1  UNL1        0.0207
     11 C          67.7951   93.5313   15.4979 C.ar    1  UNL1        0.0032
     12 C          67.2879   93.4512   14.0885 C.ar    1  UNL1        0.0208
     13 C          66.0591   92.6488   13.7781 C.ar    1  UNL1        0.1021
     14 N          62.0617   90.1887   12.0027 N.pl3   1  UNL1       -0.3184
     15 H          61.6533   90.2048   12.8984 H       1  UNL1        0.1482
     16 C          59.3614   87.4524    7.7527 C.3     1  UNL1        0.0000
     17 C          60.4100   87.4638    8.8253 C.3     1  UNL1        0.0001
     18 C          60.6150   86.0834    8.2752 C.3     1  UNL1        0.0000
     19 C          61.5298   86.9957    9.7068 C.3     1  UNL1        0.0017
     20 C          62.0804   87.9040   10.7660 C.3     1  UNL1        0.0195
     21 C          61.5112   89.2804   10.9437 C.3     1  UNL1        0.0704
     22 C          60.3914   89.7485   10.0621 C.3     1  UNL1        0.0195
     23 C          59.8408   88.8402    9.0030 C.3     1  UNL1        0.0017
@<TRIPOS>BOND
     1    16    17    1
     2    17    18    1
     3    17    19    1
     4    19    20    1
     5    20    21    1
     6    21    14    1
     7    14     1    1
     8     1     2   ar
     9     2     3   ar
    10     3     4   ar
    11     4     5   ar
    12     5     6   ar
    13     6     7   ar
    14     7     8   ar
    15     8     9   ar
    16     9    10   ar
    17    10    11   ar
    18    11    12   ar
    19    12    13   ar
    20    21    22    1
    21    22    23    1
    22    23    17    1
    23     6     1   ar
    24    13     8   ar
    25    13     5   ar
    26    14    15    1
@<TRIPOS>MOLECULE
*****
 23 26 0 0 0
SMALL
GASTEIGER

@<TRIPOS>ATOM
      1 C          61.9667   88.9628   12.2737 C.ar    1  UNL1        0.1512
      2 N          60.7965   89.8356   12.6185 N.ar    1  UNL1       -0.2076
      3 C          59.5565   89.7951   11.7754 C.ar    1  UNL1        0.2002
      4 N          59.4867   88.8818   10.5875 N.ar    1  UNL1       -0.2207
      5 C          60.6569   88.0090   10.2427 C.ar    1  UNL1        0.1226
      6 C          61.8969   88.0495   11.0858 C.ar    1  UNL1        0.1515
      7 N          62.8842   87.0813   10.5048 N.ar    1  UNL1       -0.1606
      8 N          62.2545   86.4424    9.3026 N.ar    1  UNL1       -0.2266
      9 C          62.7567   85.4126    8.3345 C.ar    1  UNL1        0.1004
     10 C          61.8824   84.9562    7.2044 C.ar    1  UNL1        0.0207
     11 C          60.5058   85.5296    7.0424 C.ar    1  UNL1        0.0032
     12 C          60.0035   86.5593    8.0106 C.ar    1  UNL1        0.0208
     13 C          60.8779   87.0157    9.1406 C.ar    1  UNL1        0.1021
     14 N          63.2066   89.0033   13.1168 N.pl3   1  UNL1       -0.3184
     15 H          63.4543   88.2245   13.6658 H       1  UNL1        0.1482
     16 C          66.7428   93.4177   14.0389 C.3     1  UNL1        0.0000
     17 C          65.7946   92.6846   13.1370 C.3     1  UNL1        0.0001
     18 C          66.1680   93.8316   12.2453 C.3     1  UNL1        0.0000
     19 C          64.9760   92.3498   11.9254 C.3     1  UNL1        0.0017
     20 C          64.1133   91.1227   11.9186 C.3     1  UNL1        0.0195
     21 C          64.0692   90.2304   13.1235 C.3     1  UNL1        0.0704
     22 C          64.8878   90.5651   14.3352 C.3     1  UNL1        0.0195
     23 C          65.7504   91.7922   14.3419 C.3     1  UNL1        0.0017
@<TRIPOS>BOND
     1    16    17    1
     2    17    18    1
     3    17    19    1
     4    19    20    1
     5    20    21    1
     6    21    14    1
     7    14     1    1
     8     1     2   ar
     9     2     3   ar
    10     3     4   ar
    11     4     5   ar
    12     5     6   ar
    13     6     7   ar
    14     7     8   ar
    15     8     9   ar
    16     9    10   ar
    17    10    11   ar
    18    11    12   ar
    19    12    13   ar
    20    21    22    1
    21    22    23    1
    22    23    17    1
    23     6     1   ar
    24    13     8   ar
    25    13     5   ar
    26    14    15    1
@<TRIPOS>MOLECULE
*****
 23 26 0 0 0
SMALL
GASTEIGER

@<TRIPOS>ATOM
      1 C          63.2986   90.1273   13.4777 C.ar    1  UNL1        0.1512
      2 N          62.7419   90.6271   12.1776 N.ar    1  UNL1       -0.2076
      3 C          62.4110   89.6581   11.0815 C.ar    1  UNL1        0.2002
      4 N          62.6368   88.1893   11.2855 N.ar    1  UNL1       -0.2207
      5 C          63.1935   87.6895   12.5855 C.ar    1  UNL1        0.1226
      6 C          63.5244   88.6585   13.6817 C.ar    1  UNL1        0.1515
      7 N          64.0563   87.8770   14.8463 N.ar    1  UNL1       -0.1606
      8 N          64.0542   86.4249   14.4699 N.ar    1  UNL1       -0.2266
      9 C          64.4689   85.1933   15.2189 C.ar    1  UNL1        0.1004
     10 C          64.3503   83.8458   14.5708 C.ar    1  UNL1        0.0207
     11 C          63.8171   83.7300   13.1735 C.ar    1  UNL1        0.0032
     12 C          63.4024   84.9616   12.4245 C.ar    1  UNL1        0.0208
     13 C          63.5209   86.3091   13.0727 C.ar    1  UNL1        0.1021
     14 N          63.6295   91.0963   14.5738 N.pl3   1  UNL1       -0.3184
     15 H          62.9195   91.4241   15.1720 H       1  UNL1        0.1482
     16 C          69.1758   92.5274   14.3954 C.3     1  UNL1        0.0000
     17 C          67.8671   92.5053   15.1280 C.3     1  UNL1        0.0001
     18 C          68.7225   93.2028   16.1438 C.3     1  UNL1        0.0000
     19 C          66.8554   92.7255   16.2135 C.3     1  UNL1        0.0017
     20 C          65.4429   92.2558   16.0288 C.3     1  UNL1        0.0195
     21 C          65.0419   91.5660   14.7586 C.3     1  UNL1        0.0704
     22 C          66.0536   91.3458   13.6731 C.3     1  UNL1        0.0195
     23 C          67.4661   91.8155   13.8578 C.3     1  UNL1        0.0017
@<TRIPOS>BOND
     1    16    17    1
     2    17    18    1
     3    17    19    1
     4    19    20    1
     5    20    21    1
     6    21    14    1
     7    14     1    1
     8     1     2   ar
     9     2     3   ar
    10     3     4   ar
    11     4     5   ar
    12     5     6   ar
    13     6     7   ar
    14     7     8   ar
    15     8     9   ar
    16     9    10   ar
    17    10    11   ar
    18    11    12   ar
    19    12    13   ar
    20    21    22    1
    21    22    23    1
    22    23    17    1
    23     6     1   ar
    24    13     8   ar
    25    13     5   ar
    26    14    15    1
