@<TRIPOS>MOLECULE
*****
 48 54 0 0 0
SMALL
GASTEIGER

@<TRIPOS>ATOM
      1 C          62.7651   80.9457   12.3514 C.ar    1  UNL1        0.1736
      2 C          62.2741   82.2281   11.7476 C.ar    1  UNL1        0.0548
      3 C          62.3161   83.4973   12.5459 C.ar    1  UNL1        0.0569
      4 C          62.8490   83.4842   13.9480 C.ar    1  UNL1        0.0560
      5 C          63.3400   82.2018   14.5518 C.ar    1  UNL1        0.0444
      6 C          63.2980   80.9326   13.7535 C.ar    1  UNL1        0.1726
      7 C          62.8910   84.7535   14.7463 C.ar    1  UNL1        0.2075
      8 N          62.3157   84.9522   16.1172 N.ar    1  UNL1       -0.1074
      9 N          62.5848   86.3684   16.5320 N.ar    1  UNL1       -0.0406
     10 N          63.3265   87.0449   15.4174 N.ar    1  UNL1       -0.1285
     11 N          63.5158   86.0468   14.3137 N.ar    1  UNL1       -0.1253
     12 C          63.7964   88.4693   15.4081 C.ar    1  UNL1        0.1045
     13 C          64.6842   88.9590   14.3026 C.ar    1  UNL1        0.0206
     14 C          65.1541   90.3835   14.2933 C.ar    1  UNL1       -0.0026
     15 C          64.7363   91.3182   15.3894 C.ar    1  UNL1       -0.0207
     16 C          63.8485   90.8285   16.4950 C.ar    1  UNL1       -0.0026
     17 C          63.3786   89.4041   16.5043 C.ar    1  UNL1        0.0206
     18 C          65.2062   92.7427   15.3802 C.3     1  UNL1        0.0437
     19 C          66.5607   93.0821   14.8323 C.3     1  UNL1        0.0771
     20 N          66.7414   93.2970   13.3588 N.3     1  UNL1       -0.2683
     21 C          67.3250   92.2081   12.5081 C.3     1  UNL1        0.0771
     22 C          67.5057   92.4230   11.0347 C.3     1  UNL1        0.0435
     23 C          67.1028   93.7268   10.4119 C.ar    1  UNL1       -0.0204
     24 C          67.2836   93.9416    8.9384 C.ar    1  UNL1        0.0162
     25 C          66.8806   95.2453    8.3156 C.ar    1  UNL1        0.0985
     26 N          66.2970   96.3342    9.1663 N.ar    1  UNL1       -0.2426
     27 C          66.1163   96.1193   10.6398 C.ar    1  UNL1        0.0956
     28 C          66.5192   94.8156   11.2626 C.ar    1  UNL1        0.0091
     29 C          66.3385   94.6007   12.7360 C.3     1  UNL1        0.1004
     30 N          61.8252   84.7796   11.9422 N.am    1  UNL1       -0.2777
     31 C          62.2949   85.1952   10.5795 C.2     1  UNL1        0.2843
     32 O          63.2555   84.3284    9.8207 O.2     1  UNL1       -0.2665
     33 H          61.1947   85.3485   12.4402 H       1  UNL1        0.1553
     34 C          61.8039   86.4775    9.9758 C.ar    1  UNL1        0.2017
     35 C          62.3191   87.7915   10.4841 C.ar    1  UNL1        0.0843
     36 C          61.8282   89.0738    9.8804 C.ar    1  UNL1        0.2018
     37 O          62.3433   90.3876   10.3887 O.2     1  UNL1       -0.2864
     38 C          60.8221   89.0423    8.7683 C.ar    1  UNL1        0.0735
     39 C          60.3311   90.3246    8.1645 C.ar    1  UNL1        0.0062
     40 C          59.3250   90.2931    7.0524 C.ar    1  UNL1        0.0003
     41 C          58.8099   88.9793    6.5441 C.ar    1  UNL1        0.0031
     42 C          59.3008   87.6970    7.1478 C.ar    1  UNL1        0.0376
     43 C          60.3069   87.7285    8.2599 C.ar    1  UNL1        0.1485
     44 O          60.7979   86.4461    8.8637 O.2     1  UNL1       -0.4487
     45 C          62.7999   79.7292   10.0560 C.3     1  UNL1        0.2526
     46 O          62.7231   79.6765   11.5531 O.3     1  UNL1       -0.4683
     47 O          63.7890   79.6503   14.3573 O.3     1  UNL1       -0.4684
     48 C          62.8459   78.4983   14.5406 C.3     1  UNL1        0.2526
@<TRIPOS>BOND
     1    45    46    1
     2    46     1    1
     3     1     2   ar
     4     2     3   ar
     5     3    30    1
     6    30    31   am
     7    31    32    2
     8    31    34    1
     9    34    35   ar
    10    35    36   ar
    11    36    37    2
    12    36    38   ar
    13    38    39   ar
    14    39    40   ar
    15    40    41   ar
    16    41    42   ar
    17    42    43   ar
    18    43    44   ar
    19     3     4   ar
    20     4     7    1
    21     7     8   ar
    22     8     9   ar
    23     9    10   ar
    24    10    12    1
    25    12    13   ar
    26    13    14   ar
    27    14    15   ar
    28    15    18    1
    29    18    19    1
    30    19    20    1
    31    20    21    1
    32    21    22    1
    33    22    23    1
    34    23    24   ar
    35    24    25   ar
    36    25    26   ar
    37    26    27   ar
    38    27    28   ar
    39    28    29    1
    40    15    16   ar
    41    16    17   ar
    42    10    11   ar
    43     4     5   ar
    44     5     6   ar
    45     6    47    1
    46    47    48    1
    47     6     1   ar
    48    44    34   ar
    49    11     7   ar
    50    43    38   ar
    51    17    12   ar
    52    29    20    1
    53    28    23   ar
    54    30    33    1
@<TRIPOS>MOLECULE
*****
 48 54 0 0 0
SMALL
GASTEIGER

@<TRIPOS>ATOM
      1 C          62.9191   80.7415   12.0659 C.ar    1  UNL1        0.1736
      2 C          63.0091   82.1059   11.4493 C.ar    1  UNL1        0.0548
      3 C          63.0558   83.3230   12.3248 C.ar    1  UNL1        0.0569
      4 C          63.0127   83.1757   13.8169 C.ar    1  UNL1        0.0560
      5 C          62.9228   81.8112   14.4336 C.ar    1  UNL1        0.0444
      6 C          62.8760   80.5941   13.5581 C.ar    1  UNL1        0.1726
      7 C          63.0595   84.3928   14.6924 C.ar    1  UNL1        0.2075
      8 N          62.5790   84.4776   16.1108 N.ar    1  UNL1       -0.1074
      9 N          62.8175   85.8759   16.5983 N.ar    1  UNL1       -0.0406
     10 N          63.4455   86.6554   15.4811 N.ar    1  UNL1       -0.1285
     11 N          63.5950   85.7388   14.3032 N.ar    1  UNL1       -0.1253
     12 C          63.8524   88.0983   15.5327 C.ar    1  UNL1        0.1045
     13 C          64.9496   88.6004   14.6416 C.ar    1  UNL1        0.0206
     14 C          65.3566   90.0432   14.6932 C.ar    1  UNL1       -0.0026
     15 C          64.6663   90.9839   15.6359 C.ar    1  UNL1       -0.0207
     16 C          63.5691   90.4817   16.5270 C.ar    1  UNL1       -0.0026
     17 C          63.1622   89.0389   16.4754 C.ar    1  UNL1        0.0206
     18 C          65.0732   92.4267   15.6876 C.3     1  UNL1        0.0437
     19 C          66.4429   92.8364   15.2337 C.3     1  UNL1        0.0771
     20 N          66.7357   92.9816   13.7697 N.3     1  UNL1       -0.2683
     21 C          67.5049   91.9144   13.0492 C.3     1  UNL1        0.0771
     22 C          67.7977   92.0596   11.5853 C.3     1  UNL1        0.0435
     23 C          67.3212   93.2722   10.8418 C.ar    1  UNL1       -0.0204
     24 C          67.6140   93.4173    9.3778 C.ar    1  UNL1        0.0162
     25 C          67.1375   94.6299    8.6344 C.ar    1  UNL1        0.0985
     26 N          66.3682   95.6972    9.3549 N.ar    1  UNL1       -0.2426
     27 C          66.0754   95.5519   10.8189 C.ar    1  UNL1        0.0956
     28 C          66.5519   94.3395   11.5623 C.ar    1  UNL1        0.0091
     29 C          66.2591   94.1942   13.0263 C.3     1  UNL1        0.1004
     30 N          63.1457   84.6874   11.7082 N.am    1  UNL1       -0.2777
     31 C          62.0403   85.6795   11.9178 C.2     1  UNL1        0.2843
     32 O          60.8450   85.3071   12.7440 O.2     1  UNL1       -0.2665
     33 H          63.9302   84.9318   11.1660 H       1  UNL1        0.1553
     34 C          62.1302   87.0439   11.3012 C.ar    1  UNL1        0.2017
     35 C          61.3266   87.3681   10.0768 C.ar    1  UNL1        0.0843
     36 C          61.4165   88.7325    9.4602 C.ar    1  UNL1        0.2018
     37 O          60.6129   89.0566    8.2358 O.2     1  UNL1       -0.2864
     38 C          62.3100   89.7728   10.0680 C.ar    1  UNL1        0.0735
     39 C          62.3999   91.1372    9.4514 C.ar    1  UNL1        0.0062
     40 C          63.2934   92.1776   10.0592 C.ar    1  UNL1        0.0003
     41 C          64.0969   91.8535   11.2836 C.ar    1  UNL1        0.0031
     42 C          64.0070   90.4891   11.9002 C.ar    1  UNL1        0.0376
     43 C          63.1136   89.4487   11.2924 C.ar    1  UNL1        0.1485
     44 O          63.0237   88.0842   11.9090 O.2     1  UNL1       -0.4487
     45 C          62.9149   79.6717    9.6983 C.3     1  UNL1        0.2526
     46 O          62.8724   79.5244   11.1904 O.3     1  UNL1       -0.4683
     47 O          62.7861   79.2297   14.1747 O.3     1  UNL1       -0.4684
     48 C          61.4800   78.4922   14.1767 C.3     1  UNL1        0.2526
@<TRIPOS>BOND
     1    45    46    1
     2    46     1    1
     3     1     2   ar
     4     2     3   ar
     5     3    30    1
     6    30    31   am
     7    31    32    2
     8    31    34    1
     9    34    35   ar
    10    35    36   ar
    11    36    37    2
    12    36    38   ar
    13    38    39   ar
    14    39    40   ar
    15    40    41   ar
    16    41    42   ar
    17    42    43   ar
    18    43    44   ar
    19     3     4   ar
    20     4     7    1
    21     7     8   ar
    22     8     9   ar
    23     9    10   ar
    24    10    12    1
    25    12    13   ar
    26    13    14   ar
    27    14    15   ar
    28    15    18    1
    29    18    19    1
    30    19    20    1
    31    20    21    1
    32    21    22    1
    33    22    23    1
    34    23    24   ar
    35    24    25   ar
    36    25    26   ar
    37    26    27   ar
    38    27    28   ar
    39    28    29    1
    40    15    16   ar
    41    16    17   ar
    42    10    11   ar
    43     4     5   ar
    44     5     6   ar
    45     6    47    1
    46    47    48    1
    47     6     1   ar
    48    44    34   ar
    49    11     7   ar
    50    43    38   ar
    51    17    12   ar
    52    29    20    1
    53    28    23   ar
    54    30    33    1
@<TRIPOS>MOLECULE
*****
 48 54 0 0 0
SMALL
GASTEIGER

@<TRIPOS>ATOM
      1 C          64.9815   90.2958   14.2606 C.ar    1  UNL1        0.1736
      2 C          64.5812   88.8677   14.0369 C.ar    1  UNL1        0.0548
      3 C          63.6625   88.5149   12.9048 C.ar    1  UNL1        0.0569
      4 C          63.1442   89.5902   11.9965 C.ar    1  UNL1        0.0560
      5 C          63.5446   91.0184   12.2203 C.ar    1  UNL1        0.0444
      6 C          64.4632   91.3712   13.3523 C.ar    1  UNL1        0.1726
      7 C          62.2255   89.2374   10.8644 C.ar    1  UNL1        0.2075
      8 N          61.5048   87.9339   10.6873 N.ar    1  UNL1       -0.1074
      9 N          60.7001   88.0170    9.4242 N.ar    1  UNL1       -0.0406
     10 N          60.9236   89.3719    8.8205 N.ar    1  UNL1       -0.1285
     11 N          61.8664   90.1262    9.7107 N.ar    1  UNL1       -0.1253
     12 C          60.3117   89.8828    7.5499 C.ar    1  UNL1        0.1045
     13 C          61.1612   90.6033    6.5452 C.ar    1  UNL1        0.0206
     14 C          60.5493   91.1143    5.2746 C.ar    1  UNL1       -0.0026
     15 C          59.0881   90.9047    5.0086 C.ar    1  UNL1       -0.0207
     16 C          58.2386   90.1842    6.0133 C.ar    1  UNL1       -0.0026
     17 C          58.8505   89.6733    7.2839 C.ar    1  UNL1        0.0206
     18 C          58.4761   91.4157    3.7380 C.3     1  UNL1        0.0437
     19 C          58.8308   92.7822    3.2313 C.3     1  UNL1        0.0771
     20 N          59.6938   92.9299    2.0133 N.3     1  UNL1       -0.2683
     21 C          59.0777   92.8767    0.6468 C.3     1  UNL1        0.0771
     22 C          59.9407   93.0244   -0.5712 C.3     1  UNL1        0.0435
     23 C          61.4197   93.2252   -0.4226 C.ar    1  UNL1       -0.0204
     24 C          62.2826   93.3729   -1.6407 C.ar    1  UNL1        0.0162
     25 C          63.7617   93.5737   -1.4921 C.ar    1  UNL1        0.0985
     26 N          64.3778   93.6269   -0.1255 N.ar    1  UNL1       -0.2426
     27 C          63.5148   93.4793    1.0926 C.ar    1  UNL1        0.0956
     28 C          62.0358   93.2784    0.9440 C.ar    1  UNL1        0.0091
     29 C          61.1729   93.1308    2.1619 C.3     1  UNL1        0.1004
     30 N          63.2622   87.0868   12.6810 N.am    1  UNL1       -0.2777
     31 C          63.8639   85.9988   13.5203 C.2     1  UNL1        0.2843
     32 O          64.8660   86.3391   14.5834 O.2     1  UNL1       -0.2665
     33 H          62.6045   86.8635   11.9833 H       1  UNL1        0.1553
     34 C          63.4635   84.5707   13.2965 C.ar    1  UNL1        0.2017
     35 C          62.7747   83.8051   14.3872 C.ar    1  UNL1        0.0843
     36 C          62.3743   82.3770   14.1634 C.ar    1  UNL1        0.2018
     37 O          61.6855   81.6115   15.2541 O.2     1  UNL1       -0.2864
     38 C          62.6628   81.7143   12.8490 C.ar    1  UNL1        0.0735
     39 C          62.2624   80.2862   12.6253 C.ar    1  UNL1        0.0062
     40 C          62.5509   79.6236   11.3109 C.ar    1  UNL1        0.0003
     41 C          63.2397   80.3890   10.2202 C.ar    1  UNL1        0.0031
     42 C          63.6401   81.8171   10.4440 C.ar    1  UNL1        0.0376
     43 C          63.3516   82.4798   11.7584 C.ar    1  UNL1        0.1485
     44 O          63.7520   83.9080   11.9821 O.2     1  UNL1       -0.4487
     45 C          67.2417   91.2566   15.1084 C.3     1  UNL1        0.2526
     46 O          65.9002   90.6487   15.3927 O.3     1  UNL1       -0.4683
     47 O          64.8636   92.7994   13.5761 O.3     1  UNL1       -0.4684
     48 C          65.8690   93.4470   12.6708 C.3     1  UNL1        0.2526
@<TRIPOS>BOND
     1    45    46    1
     2    46     1    1
     3     1     2   ar
     4     2     3   ar
     5     3    30    1
     6    30    31   am
     7    31    32    2
     8    31    34    1
     9    34    35   ar
    10    35    36   ar
    11    36    37    2
    12    36    38   ar
    13    38    39   ar
    14    39    40   ar
    15    40    41   ar
    16    41    42   ar
    17    42    43   ar
    18    43    44   ar
    19     3     4   ar
    20     4     7    1
    21     7     8   ar
    22     8     9   ar
    23     9    10   ar
    24    10    12    1
    25    12    13   ar
    26    13    14   ar
    27    14    15   ar
    28    15    18    1
    29    18    19    1
    30    19    20    1
    31    20    21    1
    32    21    22    1
    33    22    23    1
    34    23    24   ar
    35    24    25   ar
    36    25    26   ar
    37    26    27   ar
    38    27    28   ar
    39    28    29    1
    40    15    16   ar
    41    16    17   ar
    42    10    11   ar
    43     4     5   ar
    44     5     6   ar
    45     6    47    1
    46    47    48    1
    47     6     1   ar
    48    44    34   ar
    49    11     7   ar
    50    43    38   ar
    51    17    12   ar
    52    29    20    1
    53    28    23   ar
    54    30    33    1
@<TRIPOS>MOLECULE
*****
 48 54 0 0 0
SMALL
GASTEIGER

@<TRIPOS>ATOM
      1 C          64.9245   90.2499   14.2702 C.ar    1  UNL1        0.1736
      2 C          64.5232   88.8227   14.0423 C.ar    1  UNL1        0.0548
      3 C          63.6316   88.4693   12.8890 C.ar    1  UNL1        0.0569
      4 C          63.1413   89.5431   11.9635 C.ar    1  UNL1        0.0560
      5 C          63.5426   90.9704   12.1914 C.ar    1  UNL1        0.0444
      6 C          64.4342   91.3238   13.3447 C.ar    1  UNL1        0.1726
      7 C          62.2497   89.1897   10.8102 C.ar    1  UNL1        0.2075
      8 N          61.6032   87.8574   10.5715 N.ar    1  UNL1       -0.1074
      9 N          60.8020   87.9508    9.3069 N.ar    1  UNL1       -0.0406
     10 N          60.9534   89.3408    8.7639 N.ar    1  UNL1       -0.1285
     11 N          61.8481   90.1066    9.6930 N.ar    1  UNL1       -0.1253
     12 C          60.3210   89.8720    7.5117 C.ar    1  UNL1        0.1045
     13 C          61.1665   90.5471    6.4727 C.ar    1  UNL1        0.0206
     14 C          60.5341   91.0782    5.2205 C.ar    1  UNL1       -0.0026
     15 C          59.0564   90.9343    5.0073 C.ar    1  UNL1       -0.0207
     16 C          58.2109   90.2593    6.0463 C.ar    1  UNL1       -0.0026
     17 C          58.8433   89.7281    7.2985 C.ar    1  UNL1        0.0206
     18 C          58.4239   91.4655    3.7551 C.3     1  UNL1        0.0437
     19 C          58.8170   92.8146    3.2305 C.3     1  UNL1        0.0771
     20 N          59.7155   92.9215    2.0341 N.3     1  UNL1       -0.2683
     21 C          61.1989   92.7669    2.1940 C.3     1  UNL1        0.0771
     22 C          62.0973   92.8737    0.9976 C.3     1  UNL1        0.0435
     23 C          61.5123   93.1352   -0.3587 C.ar    1  UNL1       -0.0204
     24 C          62.4109   93.2420   -1.5551 C.ar    1  UNL1        0.0162
     25 C          61.8259   93.5034   -2.9113 C.ar    1  UNL1        0.0985
     26 N          60.3425   93.6580   -3.0712 N.ar    1  UNL1       -0.2426
     27 C          59.4440   93.5511   -1.8748 C.ar    1  UNL1        0.0956
     28 C          60.0289   93.2897   -0.5186 C.ar    1  UNL1        0.0091
     29 C          59.1305   93.1829    0.6778 C.3     1  UNL1        0.1004
     30 N          63.2304   87.0421   12.6611 N.am    1  UNL1       -0.2777
     31 C          63.8406   85.9500   13.4888 C.2     1  UNL1        0.2843
     32 O          64.8522   86.2853   14.5445 O.2     1  UNL1       -0.2665
     33 H          62.5665   86.8220   11.9682 H       1  UNL1        0.1553
     34 C          63.4394   84.5228   13.2610 C.ar    1  UNL1        0.2017
     35 C          62.7337   83.7602   14.3429 C.ar    1  UNL1        0.0843
     36 C          62.3325   82.3330   14.1150 C.ar    1  UNL1        0.2018
     37 O          61.6269   81.5704   15.1969 O.2     1  UNL1       -0.2864
     38 C          62.6368   81.6683   12.8052 C.ar    1  UNL1        0.0735
     39 C          62.2355   80.2411   12.5773 C.ar    1  UNL1        0.0062
     40 C          62.5399   79.5764   11.2675 C.ar    1  UNL1        0.0003
     41 C          63.2455   80.3390   10.1856 C.ar    1  UNL1        0.0031
     42 C          63.6467   81.7662   10.4135 C.ar    1  UNL1        0.0376
     43 C          63.3424   82.4309   11.7233 C.ar    1  UNL1        0.1485
     44 O          63.7437   83.8582   11.9511 O.2     1  UNL1       -0.4487
     45 C          67.1337   91.2754   15.1744 C.3     1  UNL1        0.2526
     46 O          65.8161   90.6033   15.4235 O.3     1  UNL1       -0.4683
     47 O          64.8354   92.7510   13.5726 O.3     1  UNL1       -0.4684
     48 C          65.7894   93.4216   12.6292 C.3     1  UNL1        0.2526
@<TRIPOS>BOND
     1    45    46    1
     2    46     1    1
     3     1     2   ar
     4     2     3   ar
     5     3    30    1
     6    30    31   am
     7    31    32    2
     8    31    34    1
     9    34    35   ar
    10    35    36   ar
    11    36    37    2
    12    36    38   ar
    13    38    39   ar
    14    39    40   ar
    15    40    41   ar
    16    41    42   ar
    17    42    43   ar
    18    43    44   ar
    19     3     4   ar
    20     4     7    1
    21     7     8   ar
    22     8     9   ar
    23     9    10   ar
    24    10    12    1
    25    12    13   ar
    26    13    14   ar
    27    14    15   ar
    28    15    18    1
    29    18    19    1
    30    19    20    1
    31    20    21    1
    32    21    22    1
    33    22    23    1
    34    23    24   ar
    35    24    25   ar
    36    25    26   ar
    37    26    27   ar
    38    27    28   ar
    39    28    29    1
    40    15    16   ar
    41    16    17   ar
    42    10    11   ar
    43     4     5   ar
    44     5     6   ar
    45     6    47    1
    46    47    48    1
    47     6     1   ar
    48    44    34   ar
    49    11     7   ar
    50    43    38   ar
    51    17    12   ar
    52    29    20    1
    53    28    23   ar
    54    30    33    1
