@<TRIPOS>MOLECULE
*****
 68 75 0 0 0
SMALL
GASTEIGER

@<TRIPOS>ATOM
      1 N          65.8467   89.9286   14.2221 N.3     1  UNL1       -0.1862
      2 C          66.2165   88.7488   15.0714 C.3     1  UNL1        0.1775
      3 C          65.4320   87.4745   14.9675 C.2     1  UNL1        0.2452
      4 O          65.8019   86.2947   15.8169 O.2     1  UNL1       -0.2732
      5 N          64.2777   87.3800   14.0144 N.am    1  UNL1       -0.2541
      6 C          63.4932   86.1058   13.9105 C.3     1  UNL1        0.1577
      7 C          62.3388   86.0113   12.9573 C.2     1  UNL1        0.2445
      8 O          61.5543   84.7370   12.8534 O.2     1  UNL1       -0.2731
      9 N          61.9690   87.1911   12.1080 N.am    1  UNL1       -0.2705
     10 C          62.7535   88.4654   12.2119 C.3     1  UNL1        0.1359
     11 C          63.9078   88.5598   13.1651 C.3     1  UNL1        0.1908
     12 N          64.6924   89.8341   13.2690 N.am    1  UNL1       -0.1863
     13 C          64.3225   91.0139   12.4197 C.2     1  UNL1        0.3191
     14 O          63.1681   90.9194   11.4665 O.2     1  UNL1       -0.2512
     15 N          65.1070   92.2882   12.5235 N.am    1  UNL1       -0.2836
     16 H          65.8646   92.3502   13.1491 H       1  UNL1        0.1513
     17 C          66.6312   91.2028   14.3260 C.3     1  UNL1        0.1188
     18 C          67.5263   92.5638   16.3500 C.2     1  UNL1       -0.0034
     19 C          67.6282   91.3817   15.4323 C.2     1  UNL1       -0.0071
     20 C          63.8630   84.9260   14.7597 C.3     1  UNL1        0.0556
     21 C          63.5207   83.5380   14.3054 C.ar    1  UNL1       -0.0198
     22 C          62.3699   82.8067   14.9304 C.ar    1  UNL1       -0.0011
     23 C          62.0276   81.4187   14.4760 C.ar    1  UNL1        0.0363
     24 C          62.8361   80.7622   13.3966 C.ar    1  UNL1        0.1337
     25 O          62.4938   79.3742   12.9423 O.3     1  UNL1       -0.5055
     26 C          63.9870   81.4935   12.7715 C.ar    1  UNL1        0.0363
     27 C          64.3293   82.8815   13.2259 C.ar    1  UNL1       -0.0011
     28 H          61.7750   78.9173   13.3327 H       1  UNL1        0.2922
     29 C          60.8146   87.0966   11.1548 C.3     1  UNL1        0.1217
     30 C          60.3436   88.3188   10.4238 C.ar    1  UNL1        0.0135
     31 C          59.8618   89.5134   11.1926 C.ar    1  UNL1       -0.0012
     32 C          59.3908   90.7356   10.4617 C.ar    1  UNL1       -0.0002
     33 C          59.4015   90.7632    8.9620 C.ar    1  UNL1        0.0015
     34 C          59.8832   89.5687    8.1932 C.ar    1  UNL1        0.0170
     35 C          60.0081   89.3056    6.7218 C.ar    1  UNL1        0.0186
     36 C          60.5563   87.9209    6.5433 C.ar    1  UNL1        0.0759
     37 N          60.7702   87.3281    7.9044 N.ar    1  UNL1       -0.3242
     38 C          61.3061   85.9576    8.1949 C.3     1  UNL1        0.1305
     39 C          60.3543   88.3465    8.9242 C.ar    1  UNL1        0.0575
     40 C          59.6479   90.2599    5.6218 C.ar    1  UNL1        0.0016
     41 C          58.2116   90.6188    5.3807 C.ar    1  UNL1        0.0013
     42 C          57.8515   91.5730    4.2808 C.ar    1  UNL1        0.0147
     43 C          58.9277   92.1683    3.4221 C.ar    1  UNL1        0.0505
     44 C          60.3641   91.8095    3.6632 C.ar    1  UNL1        0.0147
     45 C          60.7241   90.8552    4.7631 C.ar    1  UNL1        0.0013
     46 N          58.5676   93.1226    2.3222 N.am    1  UNL1       -0.2804
     47 C          59.2573   93.0304    0.9933 C.2     1  UNL1        0.2495
     48 O          60.3073   91.9839    0.7644 O.2     1  UNL1       -0.2698
     49 H          57.8784   93.8094    2.4725 H       1  UNL1        0.1552
     50 C          58.8971   93.9846   -0.1065 C.ar    1  UNL1        0.0537
     51 C          57.5412   93.9163   -0.7444 C.ar    1  UNL1        0.0042
     52 C          57.1809   94.8705   -1.8442 C.ar    1  UNL1       -0.0028
     53 C          58.1765   95.8930   -2.3061 C.ar    1  UNL1       -0.0061
     54 C          59.5324   95.9613   -1.6681 C.ar    1  UNL1       -0.0028
     55 C          59.8927   95.0071   -0.5683 C.ar    1  UNL1        0.0042
     56 C          57.8163   96.8473   -3.4059 C.3     1  UNL1        0.0991
     57 N          57.4676   96.3247   -4.7680 N.3     1  UNL1       -0.2690
     58 C          56.0306   96.1296   -5.1514 C.3     1  UNL1        0.0724
     59 C          54.9397   96.6216   -4.2471 C.3     1  UNL1        0.0188
     60 C          58.5561   95.9972   -5.7468 C.3     1  UNL1        0.0724
     61 C          58.3304   94.9499   -6.7967 C.3     1  UNL1        0.0188
     62 C          64.7371   93.4679   11.6743 C.3     1  UNL1        0.1177
     63 C          65.7580   94.0886   10.7673 C.ar    1  UNL1       -0.0025
     64 C          66.7102   93.2177   10.0027 C.ar    1  UNL1       -0.0026
     65 C          67.7311   93.8384    9.0957 C.ar    1  UNL1       -0.0003
     66 C          67.7997   95.3300    8.9533 C.ar    1  UNL1       -0.0000
     67 C          66.8474   96.2010    9.7179 C.ar    1  UNL1       -0.0003
     68 C          65.8266   95.5803   10.6249 C.ar    1  UNL1       -0.0026
@<TRIPOS>BOND
     1    18    19    2
     2    19    17    1
     3    17     1    1
     4     1     2    1
     5     2     3    1
     6     3     4    2
     7     3     5   am
     8     5     6    1
     9     6    20    1
    10    20    21    1
    11    21    22   ar
    12    22    23   ar
    13    23    24   ar
    14    24    25    1
    15    24    26   ar
    16    26    27   ar
    17     6     7    1
    18     7     8    2
    19     7     9   am
    20     9    29    1
    21    29    30    1
    22    30    31   ar
    23    31    32   ar
    24    32    33   ar
    25    33    34   ar
    26    34    35   ar
    27    35    40    1
    28    40    41   ar
    29    41    42   ar
    30    42    43   ar
    31    43    46    1
    32    46    47   am
    33    47    48    2
    34    47    50    1
    35    50    51   ar
    36    51    52   ar
    37    52    53   ar
    38    53    56    1
    39    56    57    1
    40    57    58    1
    41    58    59    1
    42    57    60    1
    43    60    61    1
    44    53    54   ar
    45    54    55   ar
    46    43    44   ar
    47    44    45   ar
    48    35    36   ar
    49    36    37   ar
    50    37    38    1
    51    37    39   ar
    52     9    10    1
    53    11    10    1
    54    11    12    1
    55    12    13   am
    56    13    14    2
    57    13    15   am
    58    15    62    1
    59    62    63    1
    60    63    64   ar
    61    64    65   ar
    62    65    66   ar
    63    66    67   ar
    64    67    68   ar
    65    12     1    1
    66    68    63   ar
    67    11     5    1
    68    27    21   ar
    69    39    30   ar
    70    39    34   ar
    71    45    40   ar
    72    55    50   ar
    73    25    28    1
    74    46    49    1
    75    15    16    1
@<TRIPOS>MOLECULE
*****
 68 75 0 0 0
SMALL
GASTEIGER

@<TRIPOS>ATOM
      1 N          65.4698   89.8835   13.8687 N.3     1  UNL1       -0.1862
      2 C          65.8889   88.7673   14.7788 C.3     1  UNL1        0.1775
      3 C          65.1303   87.4732   14.7771 C.2     1  UNL1        0.2452
      4 O          65.5494   86.3569   15.6872 O.2     1  UNL1       -0.2732
      5 N          63.9526   87.2954   13.8653 N.am    1  UNL1       -0.2541
      6 C          63.1940   86.0014   13.8636 C.3     1  UNL1        0.1577
      7 C          62.0163   85.8236   12.9518 C.2     1  UNL1        0.2445
      8 O          61.2577   84.5296   12.9501 O.2     1  UNL1       -0.2731
      9 N          61.5971   86.9399   12.0417 N.am    1  UNL1       -0.2705
     10 C          62.3557   88.2340   12.0434 C.3     1  UNL1        0.1359
     11 C          63.5335   88.4117   12.9553 C.3     1  UNL1        0.1908
     12 N          64.2921   89.7057   12.9570 N.am    1  UNL1       -0.1863
     13 C          63.8729   90.8220   12.0468 C.2     1  UNL1        0.3191
     14 O          62.6953   90.6443   11.1350 O.2     1  UNL1       -0.2512
     15 N          64.6315   92.1161   12.0485 N.am    1  UNL1       -0.2836
     16 H          65.4045   92.2327   12.6470 H       1  UNL1        0.1513
     17 C          66.2284   91.1775   13.8705 C.3     1  UNL1        0.1188
     18 C          68.1725   92.5393   14.9269 C.2     1  UNL1       -0.0034
     19 C          67.0347   91.5726   15.0720 C.2     1  UNL1       -0.0071
     20 C          63.6131   84.8852   14.7737 C.3     1  UNL1        0.0556
     21 C          63.3572   83.4605   14.3802 C.ar    1  UNL1       -0.0198
     22 C          64.2651   82.7784   13.4002 C.ar    1  UNL1       -0.0011
     23 C          64.0092   81.3537   13.0068 C.ar    1  UNL1        0.0363
     24 C          62.8454   80.6111   13.5933 C.ar    1  UNL1        0.1337
     25 O          62.5895   79.1864   13.1999 O.3     1  UNL1       -0.5055
     26 C          61.9374   81.2932   14.5734 C.ar    1  UNL1        0.0363
     27 C          62.1933   82.7179   14.9669 C.ar    1  UNL1       -0.0011
     28 H          63.1566   78.7604   12.5877 H       1  UNL1        0.2922
     29 C          60.4195   86.7622   11.1299 C.3     1  UNL1        0.1217
     30 C          60.5652   87.0147    9.6585 C.ar    1  UNL1        0.0135
     31 C          61.0828   85.9314    8.7592 C.ar    1  UNL1       -0.0012
     32 C          61.2286   86.1840    7.2879 C.ar    1  UNL1       -0.0002
     33 C          60.8568   87.5198    6.7158 C.ar    1  UNL1        0.0015
     34 C          60.3393   88.6031    7.6150 C.ar    1  UNL1        0.0170
     35 C          59.8960   90.0094    7.3399 C.ar    1  UNL1        0.0186
     36 C          59.4763   90.6261    8.6413 C.ar    1  UNL1        0.0759
     37 N          59.6602   89.6008    9.7206 N.ar    1  UNL1       -0.3242
     38 C          59.3628   89.7923   11.1783 C.3     1  UNL1        0.1305
     39 C          60.1935   88.3506    9.0864 C.ar    1  UNL1        0.0575
     40 C          59.8761   90.6812    5.9988 C.ar    1  UNL1        0.0016
     41 C          58.5855   91.2044    5.4412 C.ar    1  UNL1        0.0013
     42 C          58.5656   91.8761    4.1002 C.ar    1  UNL1        0.0147
     43 C          59.8361   92.0247    3.3168 C.ar    1  UNL1        0.0505
     44 C          61.1266   91.5016    3.8744 C.ar    1  UNL1        0.0147
     45 C          61.1465   90.8298    5.2154 C.ar    1  UNL1        0.0013
     46 N          59.8161   92.6965    1.9758 N.am    1  UNL1       -0.2804
     47 C          61.0432   92.6859    1.1132 C.2     1  UNL1        0.2495
     48 O          62.2904   92.0035    1.5916 O.2     1  UNL1       -0.2698
     49 H          58.9975   93.1443    1.6618 H       1  UNL1        0.1552
     50 C          61.0231   93.3577   -0.2278 C.ar    1  UNL1        0.0537
     51 C          62.0594   94.3882   -0.5659 C.ar    1  UNL1        0.0042
     52 C          62.0393   95.0600   -1.9069 C.ar    1  UNL1       -0.0028
     53 C          60.9831   94.7014   -2.9097 C.ar    1  UNL1       -0.0061
     54 C          59.9468   93.6709   -2.5716 C.ar    1  UNL1       -0.0028
     55 C          59.9669   92.9990   -1.2306 C.ar    1  UNL1        0.0042
     56 C          60.9629   95.3731   -4.2507 C.3     1  UNL1        0.0991
     57 N          61.4793   94.6504   -5.4594 N.3     1  UNL1       -0.2690
     58 C          60.6180   94.5207   -6.6806 C.3     1  UNL1        0.0724
     59 C          59.1432   94.2878   -6.5369 C.3     1  UNL1        0.0188
     60 C          62.8570   94.0574   -5.4470 C.3     1  UNL1        0.0724
     61 C          63.9976   94.8227   -4.8440 C.3     1  UNL1        0.0188
     62 C          64.2125   93.2323   11.1385 C.3     1  UNL1        0.1177
     63 C          65.2499   94.0548   10.4334 C.ar    1  UNL1       -0.0025
     64 C          66.5647   93.4398   10.0550 C.ar    1  UNL1       -0.0026
     65 C          67.6021   94.2623    9.3499 C.ar    1  UNL1       -0.0003
     66 C          67.3249   95.6998    9.0232 C.ar    1  UNL1       -0.0000
     67 C          66.0101   96.3148    9.4016 C.ar    1  UNL1       -0.0003
     68 C          64.9726   95.4924   10.1067 C.ar    1  UNL1       -0.0026
@<TRIPOS>BOND
     1    18    19    2
     2    19    17    1
     3    17     1    1
     4     1     2    1
     5     2     3    1
     6     3     4    2
     7     3     5   am
     8     5     6    1
     9     6    20    1
    10    20    21    1
    11    21    22   ar
    12    22    23   ar
    13    23    24   ar
    14    24    25    1
    15    24    26   ar
    16    26    27   ar
    17     6     7    1
    18     7     8    2
    19     7     9   am
    20     9    29    1
    21    29    30    1
    22    30    31   ar
    23    31    32   ar
    24    32    33   ar
    25    33    34   ar
    26    34    35   ar
    27    35    40    1
    28    40    41   ar
    29    41    42   ar
    30    42    43   ar
    31    43    46    1
    32    46    47   am
    33    47    48    2
    34    47    50    1
    35    50    51   ar
    36    51    52   ar
    37    52    53   ar
    38    53    56    1
    39    56    57    1
    40    57    58    1
    41    58    59    1
    42    57    60    1
    43    60    61    1
    44    53    54   ar
    45    54    55   ar
    46    43    44   ar
    47    44    45   ar
    48    35    36   ar
    49    36    37   ar
    50    37    38    1
    51    37    39   ar
    52     9    10    1
    53    11    10    1
    54    11    12    1
    55    12    13   am
    56    13    14    2
    57    13    15   am
    58    15    62    1
    59    62    63    1
    60    63    64   ar
    61    64    65   ar
    62    65    66   ar
    63    66    67   ar
    64    67    68   ar
    65    12     1    1
    66    68    63   ar
    67    11     5    1
    68    27    21   ar
    69    39    30   ar
    70    39    34   ar
    71    45    40   ar
    72    55    50   ar
    73    25    28    1
    74    46    49    1
    75    15    16    1
@<TRIPOS>MOLECULE
*****
 68 75 0 0 0
SMALL
GASTEIGER

@<TRIPOS>ATOM
      1 N          64.4796   83.1454   13.3316 N.3     1  UNL1       -0.1862
      2 C          65.0461   83.9880   14.4357 C.3     1  UNL1        0.1775
      3 C          64.6139   85.4164   14.5862 C.2     1  UNL1        0.2452
      4 O          65.1803   86.2590   15.6904 O.2     1  UNL1       -0.2732
      5 N          63.6152   86.0023   13.6326 N.am    1  UNL1       -0.2541
      6 C          63.1830   87.4308   13.7831 C.3     1  UNL1        0.1577
      7 C          62.1843   88.0166   12.8295 C.2     1  UNL1        0.2445
      8 O          61.7521   89.4451   12.9800 O.2     1  UNL1       -0.2731
      9 N          61.6178   87.1740   11.7253 N.am    1  UNL1       -0.2705
     10 C          62.0500   85.7455   11.5748 C.3     1  UNL1        0.1359
     11 C          63.0488   85.1597   12.5285 C.3     1  UNL1        0.1908
     12 N          63.4810   83.7312   12.3780 N.am    1  UNL1       -0.1863
     13 C          62.9145   82.8886   11.2738 C.2     1  UNL1        0.3191
     14 O          61.9158   83.4745   10.3202 O.2     1  UNL1       -0.2512
     15 N          63.3467   81.4601   11.1233 N.am    1  UNL1       -0.2836
     16 H          64.0022   81.0756   11.7492 H       1  UNL1        0.1513
     17 C          64.9119   81.7169   13.1811 C.3     1  UNL1        0.1188
     18 C          62.7195   80.7394   14.1750 C.2     1  UNL1       -0.0034
     19 C          64.1959   80.6336   13.9319 C.2     1  UNL1       -0.0071
     20 C          63.7494   88.2734   14.8872 C.3     1  UNL1        0.0556
     21 C          64.3125   89.6298   14.5821 C.ar    1  UNL1       -0.0198
     22 C          64.5361   90.0462   13.1586 C.ar    1  UNL1       -0.0011
     23 C          65.0992   91.4025   12.8534 C.ar    1  UNL1        0.0363
     24 C          65.4388   92.3425   13.9719 C.ar    1  UNL1        0.1337
     25 O          66.0019   93.6989   13.6668 O.3     1  UNL1       -0.5055
     26 C          65.2153   91.9262   15.3956 C.ar    1  UNL1        0.0363
     27 C          64.6521   90.5698   15.7007 C.ar    1  UNL1       -0.0011
     28 H          66.1415   93.9590   12.7775 H       1  UNL1        0.2922
     29 C          60.6192   87.7599   10.7717 C.3     1  UNL1        0.1217
     30 C          61.0181   88.8883    9.8674 C.ar    1  UNL1        0.0135
     31 C          62.0475   89.8821   10.3176 C.ar    1  UNL1       -0.0012
     32 C          62.4464   91.0105    9.4134 C.ar    1  UNL1       -0.0002
     33 C          61.8160   91.1450    8.0590 C.ar    1  UNL1        0.0015
     34 C          60.7866   90.1511    7.6088 C.ar    1  UNL1        0.0170
     35 C          59.9985   90.0279    6.3385 C.ar    1  UNL1        0.0186
     36 C          59.1125   88.8234    6.4577 C.ar    1  UNL1        0.0759
     37 N          59.3530   88.2023    7.8016 N.ar    1  UNL1       -0.3242
     38 C          58.6775   86.9758    8.3396 C.3     1  UNL1        0.1305
     39 C          60.3877   89.0228    8.5130 C.ar    1  UNL1        0.0575
     40 C          60.0818   90.9478    5.1565 C.ar    1  UNL1        0.0016
     41 C          58.8571   91.6727    4.6825 C.ar    1  UNL1        0.0013
     42 C          58.9404   92.5924    3.5006 C.ar    1  UNL1        0.0147
     43 C          60.2484   92.7874    2.7927 C.ar    1  UNL1        0.0505
     44 C          61.4731   92.0626    3.2667 C.ar    1  UNL1        0.0147
     45 C          61.3898   91.1428    4.4486 C.ar    1  UNL1        0.0013
     46 N          60.3317   93.7072    1.6108 N.am    1  UNL1       -0.2804
     47 C          60.3934   93.1415    0.2229 C.2     1  UNL1        0.2495
     48 O          60.3718   91.6559    0.0170 O.2     1  UNL1       -0.2698
     49 H          60.3458   94.6823    1.7459 H       1  UNL1        0.1552
     50 C          60.4766   94.0614   -0.9590 C.ar    1  UNL1        0.0537
     51 C          59.9935   95.4767   -0.8432 C.ar    1  UNL1        0.0042
     52 C          60.0768   96.3967   -2.0250 C.ar    1  UNL1       -0.0028
     53 C          60.6431   95.9013   -3.3226 C.ar    1  UNL1       -0.0061
     54 C          61.1262   94.4860   -3.4384 C.ar    1  UNL1       -0.0028
     55 C          61.0429   93.5660   -2.2566 C.ar    1  UNL1        0.0042
     56 C          60.7263   96.8212   -4.5045 C.3     1  UNL1        0.0991
     57 N          60.8206   96.2551   -5.8904 N.3     1  UNL1       -0.2690
     58 C          62.1553   96.1422   -6.5654 C.3     1  UNL1        0.0724
     59 C          63.3930   96.6181   -5.8642 C.3     1  UNL1        0.0188
     60 C          59.5799   95.8018   -6.6012 C.3     1  UNL1        0.0724
     61 C          59.2585   94.3394   -6.6905 C.3     1  UNL1        0.0188
     62 C          62.7803   80.6175   10.0191 C.3     1  UNL1        0.1177
     63 C          63.1162   79.1577    9.9420 C.ar    1  UNL1       -0.0025
     64 C          62.4576   78.1861   10.8759 C.ar    1  UNL1       -0.0026
     65 C          62.7936   76.7263   10.7987 C.ar    1  UNL1       -0.0003
     66 C          63.7881   76.2380    9.7876 C.ar    1  UNL1       -0.0000
     67 C          64.4468   77.2095    8.8536 C.ar    1  UNL1       -0.0003
     68 C          64.1109   78.6694    8.9308 C.ar    1  UNL1       -0.0026
@<TRIPOS>BOND
     1    18    19    2
     2    19    17    1
     3    17     1    1
     4     1     2    1
     5     2     3    1
     6     3     4    2
     7     3     5   am
     8     5     6    1
     9     6    20    1
    10    20    21    1
    11    21    22   ar
    12    22    23   ar
    13    23    24   ar
    14    24    25    1
    15    24    26   ar
    16    26    27   ar
    17     6     7    1
    18     7     8    2
    19     7     9   am
    20     9    29    1
    21    29    30    1
    22    30    31   ar
    23    31    32   ar
    24    32    33   ar
    25    33    34   ar
    26    34    35   ar
    27    35    40    1
    28    40    41   ar
    29    41    42   ar
    30    42    43   ar
    31    43    46    1
    32    46    47   am
    33    47    48    2
    34    47    50    1
    35    50    51   ar
    36    51    52   ar
    37    52    53   ar
    38    53    56    1
    39    56    57    1
    40    57    58    1
    41    58    59    1
    42    57    60    1
    43    60    61    1
    44    53    54   ar
    45    54    55   ar
    46    43    44   ar
    47    44    45   ar
    48    35    36   ar
    49    36    37   ar
    50    37    38    1
    51    37    39   ar
    52     9    10    1
    53    11    10    1
    54    11    12    1
    55    12    13   am
    56    13    14    2
    57    13    15   am
    58    15    62    1
    59    62    63    1
    60    63    64   ar
    61    64    65   ar
    62    65    66   ar
    63    66    67   ar
    64    67    68   ar
    65    12     1    1
    66    68    63   ar
    67    11     5    1
    68    27    21   ar
    69    39    30   ar
    70    39    34   ar
    71    45    40   ar
    72    55    50   ar
    73    25    28    1
    74    46    49    1
    75    15    16    1
