@<TRIPOS>MOLECULE
*****
 22 24 0 0 0
SMALL
GASTEIGER

@<TRIPOS>ATOM
      1 C          65.5121   92.3720   12.6749 C.ar    1  UNL1        0.0001
      2 C          66.0940   92.3545   14.0573 C.ar    1  UNL1       -0.0003
      3 C          65.4287   91.5590   15.1411 C.ar    1  UNL1       -0.0039
      4 C          64.1815   90.7811   14.8425 C.ar    1  UNL1       -0.0178
      5 C          63.5996   90.7986   13.4601 C.ar    1  UNL1       -0.0039
      6 C          64.2649   91.5941   12.3763 C.ar    1  UNL1       -0.0003
      7 O          68.1733   95.5539    8.3397 O.3     1  UNL1       -0.5034
      8 C          67.5080   94.7585    9.4235 C.ar    1  UNL1        0.1610
      9 C          66.6863   95.4542   10.4678 C.ar    1  UNL1        0.0390
     10 C          66.0210   94.6588   11.5516 C.ar    1  UNL1        0.0033
     11 C          66.1774   93.1675   11.5911 C.ar    1  UNL1        0.0024
     12 C          66.9991   92.4717   10.5468 C.ar    1  UNL1        0.0328
     13 C          67.6644   93.2672    9.4630 C.ar    1  UNL1        0.1735
     14 F          68.4861   92.5713    8.4186 F       1  UNL1       -0.2010
     15 H          68.0756   96.4855    8.3151 H       1  UNL1        0.2923
     16 C          63.5162   89.9856   15.9263 C.3     1  UNL1        0.0527
     17 C          63.6257   88.4897   15.9335 C.ar    1  UNL1       -0.0147
     18 C          64.3834   87.7878   14.8456 C.ar    1  UNL1        0.0167
     19 C          64.4929   86.2918   14.8529 C.ar    1  UNL1        0.0986
     20 N          63.8447   85.4977   15.9479 N.ar    1  UNL1       -0.2423
     21 C          63.0870   86.1995   17.0358 C.ar    1  UNL1        0.0986
     22 C          62.9775   87.6955   17.0286 C.ar    1  UNL1        0.0167
@<TRIPOS>BOND
     1     7     8    1
     2     8     9   ar
     3     9    10   ar
     4    10    11   ar
     5    11     1    1
     6     1     2   ar
     7     2     3   ar
     8     3     4   ar
     9     4    16    1
    10    16    17    1
    11    17    18   ar
    12    18    19   ar
    13    19    20   ar
    14    20    21   ar
    15    21    22   ar
    16     4     5   ar
    17     5     6   ar
    18    11    12   ar
    19    12    13   ar
    20    13    14    1
    21    13     8   ar
    22     6     1   ar
    23    22    17   ar
    24     7    15    1
@<TRIPOS>MOLECULE
*****
 22 24 0 0 0
SMALL
GASTEIGER

@<TRIPOS>ATOM
      1 C          64.5686   90.1936   14.3146 C.ar    1  UNL1        0.0001
      2 C          63.9255   90.5166   12.9986 C.ar    1  UNL1       -0.0003
      3 C          64.3929   91.7014   12.2062 C.ar    1  UNL1       -0.0039
      4 C          65.5035   92.5630   12.7298 C.ar    1  UNL1       -0.0178
      5 C          66.1466   92.2399   14.0458 C.ar    1  UNL1       -0.0039
      6 C          65.6792   91.0552   14.8382 C.ar    1  UNL1       -0.0003
      7 O          62.6989   85.4547   17.4843 O.3     1  UNL1       -0.5034
      8 C          63.1664   86.6394   16.6919 C.ar    1  UNL1        0.1610
      9 C          62.8286   88.0277   17.1485 C.ar    1  UNL1        0.0390
     10 C          63.2960   89.2124   16.3561 C.ar    1  UNL1        0.0033
     11 C          64.1012   89.0088   15.1071 C.ar    1  UNL1        0.0024
     12 C          64.4390   87.6206   14.6504 C.ar    1  UNL1        0.0328
     13 C          63.9716   86.4358   15.4429 C.ar    1  UNL1        0.1735
     14 F          64.3094   85.0475   14.9862 F       1  UNL1       -0.2010
     15 H          62.1959   85.5818   18.2646 H       1  UNL1        0.2923
     16 C          65.9709   93.7477   11.9373 C.3     1  UNL1        0.0527
     17 C          66.7816   93.5444   10.6918 C.ar    1  UNL1       -0.0147
     18 C          67.6215   92.3112   10.5366 C.ar    1  UNL1        0.0167
     19 C          68.4322   92.1079    9.2911 C.ar    1  UNL1        0.0986
     20 N          68.4031   93.1376    8.2008 N.ar    1  UNL1       -0.2423
     21 C          67.5633   94.3707    8.3560 C.ar    1  UNL1        0.0986
     22 C          66.7525   94.5741    9.6015 C.ar    1  UNL1        0.0167
@<TRIPOS>BOND
     1     7     8    1
     2     8     9   ar
     3     9    10   ar
     4    10    11   ar
     5    11     1    1
     6     1     2   ar
     7     2     3   ar
     8     3     4   ar
     9     4    16    1
    10    16    17    1
    11    17    18   ar
    12    18    19   ar
    13    19    20   ar
    14    20    21   ar
    15    21    22   ar
    16     4     5   ar
    17     5     6   ar
    18    11    12   ar
    19    12    13   ar
    20    13    14    1
    21    13     8   ar
    22     6     1   ar
    23    22    17   ar
    24     7    15    1
@<TRIPOS>MOLECULE
*****
 22 24 0 0 0
SMALL
GASTEIGER

@<TRIPOS>ATOM
      1 C          62.4062   88.0275   10.4443 C.ar    1  UNL1        0.0001
      2 C          62.2901   89.5090   10.2408 C.ar    1  UNL1       -0.0003
      3 C          62.7259   90.4513   11.3234 C.ar    1  UNL1       -0.0039
      4 C          63.2779   89.9120   12.6096 C.ar    1  UNL1       -0.0178
      5 C          63.3941   88.4305   12.8132 C.ar    1  UNL1       -0.0039
      6 C          62.9582   87.4882   11.7306 C.ar    1  UNL1       -0.0003
      7 O          60.6628   84.2584    6.1137 O.3     1  UNL1       -0.5034
      8 C          61.0986   85.2007    7.1964 C.ar    1  UNL1        0.1610
      9 C          62.5001   85.1364    7.7272 C.ar    1  UNL1        0.0390
     10 C          62.9359   86.0787    8.8098 C.ar    1  UNL1        0.0033
     11 C          61.9703   87.0852    9.3617 C.ar    1  UNL1        0.0024
     12 C          60.5689   87.1494    8.8309 C.ar    1  UNL1        0.0328
     13 C          60.1330   86.2072    7.7482 C.ar    1  UNL1        0.1735
     14 F          58.7315   86.2714    7.2174 F       1  UNL1       -0.2010
     15 H          61.2659   83.6297    5.7690 H       1  UNL1        0.2923
     16 C          63.7138   90.8543   13.6923 C.3     1  UNL1        0.0527
     17 C          65.0774   91.4772   13.6404 C.ar    1  UNL1       -0.0147
     18 C          65.4306   92.4172   12.5260 C.ar    1  UNL1        0.0167
     19 C          66.7942   93.0400   12.4741 C.ar    1  UNL1        0.0986
     20 N          67.8045   92.7229   13.5365 N.ar    1  UNL1       -0.2423
     21 C          67.4513   91.7829   14.6508 C.ar    1  UNL1        0.0986
     22 C          66.0877   91.1600   14.7027 C.ar    1  UNL1        0.0167
@<TRIPOS>BOND
     1     7     8    1
     2     8     9   ar
     3     9    10   ar
     4    10    11   ar
     5    11     1    1
     6     1     2   ar
     7     2     3   ar
     8     3     4   ar
     9     4    16    1
    10    16    17    1
    11    17    18   ar
    12    18    19   ar
    13    19    20   ar
    14    20    21   ar
    15    21    22   ar
    16     4     5   ar
    17     5     6   ar
    18    11    12   ar
    19    12    13   ar
    20    13    14    1
    21    13     8   ar
    22     6     1   ar
    23    22    17   ar
    24     7    15    1
@<TRIPOS>MOLECULE
*****
 22 24 0 0 0
SMALL
GASTEIGER

@<TRIPOS>ATOM
      1 C          62.8416   88.9681   11.9754 C.ar    1  UNL1        0.0001
      2 C          62.8479   90.4669   11.9163 C.ar    1  UNL1       -0.0003
      3 C          63.5629   91.2561   12.9726 C.ar    1  UNL1       -0.0039
      4 C          64.2717   90.5466   14.0880 C.ar    1  UNL1       -0.0178
      5 C          64.2655   89.0478   14.1471 C.ar    1  UNL1       -0.0039
      6 C          63.5504   88.2586   13.0908 C.ar    1  UNL1       -0.0003
      7 O          59.9815   85.8111    7.7502 O.3     1  UNL1       -0.5034
      8 C          60.6965   86.6003    8.8065 C.ar    1  UNL1        0.1610
      9 C          61.4700   85.8908    9.8780 C.ar    1  UNL1        0.0390
     10 C          62.1851   86.6801   10.9343 C.ar    1  UNL1        0.0033
     11 C          62.1266   88.1788   10.9191 C.ar    1  UNL1        0.0024
     12 C          61.3530   88.8883    9.8476 C.ar    1  UNL1        0.0328
     13 C          60.6380   88.0991    8.7913 C.ar    1  UNL1        0.1735
     14 F          59.8644   88.8086    7.7197 F       1  UNL1       -0.2010
     15 H          60.0180   84.8748    7.7597 H       1  UNL1        0.2923
     16 C          64.9867   91.3359   15.1443 C.3     1  UNL1        0.0527
     17 C          66.3951   91.7966   14.9118 C.ar    1  UNL1       -0.0147
     18 C          67.1295   92.5378   15.9895 C.ar    1  UNL1        0.0167
     19 C          68.5378   92.9985   15.7569 C.ar    1  UNL1        0.0986
     20 N          69.2120   92.7180   14.4466 N.ar    1  UNL1       -0.2423
     21 C          68.4778   91.9769   13.3689 C.ar    1  UNL1        0.0986
     22 C          67.0693   91.5161   13.6015 C.ar    1  UNL1        0.0167
@<TRIPOS>BOND
     1     7     8    1
     2     8     9   ar
     3     9    10   ar
     4    10    11   ar
     5    11     1    1
     6     1     2   ar
     7     2     3   ar
     8     3     4   ar
     9     4    16    1
    10    16    17    1
    11    17    18   ar
    12    18    19   ar
    13    19    20   ar
    14    20    21   ar
    15    21    22   ar
    16     4     5   ar
    17     5     6   ar
    18    11    12   ar
    19    12    13   ar
    20    13    14    1
    21    13     8   ar
    22     6     1   ar
    23    22    17   ar
    24     7    15    1
@<TRIPOS>MOLECULE
*****
 22 24 0 0 0
SMALL
GASTEIGER

@<TRIPOS>ATOM
      1 C          63.5541   86.0647   13.3126 C.ar    1  UNL1        0.0001
      2 C          63.1002   87.1072   12.3342 C.ar    1  UNL1       -0.0003
      3 C          63.2873   88.5621   12.6478 C.ar    1  UNL1       -0.0039
      4 C          63.9283   88.9745   13.9397 C.ar    1  UNL1       -0.0178
      5 C          64.3821   87.9320   14.9180 C.ar    1  UNL1       -0.0039
      6 C          64.1951   86.4771   14.6045 C.ar    1  UNL1       -0.0003
      7 O          62.8058   80.2452   12.0583 O.3     1  UNL1       -0.5034
      8 C          62.9929   81.7001   12.3719 C.ar    1  UNL1        0.1610
      9 C          63.7375   82.5837   11.4155 C.ar    1  UNL1        0.0390
     10 C          63.9245   84.0386   11.7291 C.ar    1  UNL1        0.0033
     11 C          63.3670   84.6098   12.9990 C.ar    1  UNL1        0.0024
     12 C          62.6225   83.7262   13.9554 C.ar    1  UNL1        0.0328
     13 C          62.4354   82.2713   13.6419 C.ar    1  UNL1        0.1735
     14 F          61.6908   81.3877   14.5983 F       1  UNL1       -0.2010
     15 H          63.1541   79.8884   11.2650 H       1  UNL1        0.2923
     16 C          64.1153   90.4294   14.2533 C.3     1  UNL1        0.0527
     17 C          65.2359   91.1960   13.6157 C.ar    1  UNL1       -0.0147
     18 C          66.5733   91.2702   14.2909 C.ar    1  UNL1        0.0167
     19 C          67.6939   92.0368   13.6533 C.ar    1  UNL1        0.0986
     20 N          67.4772   92.7292   12.3404 N.ar    1  UNL1       -0.2423
     21 C          66.1398   92.6550   11.6652 C.ar    1  UNL1        0.0986
     22 C          65.0192   91.8884   12.3028 C.ar    1  UNL1        0.0167
@<TRIPOS>BOND
     1     7     8    1
     2     8     9   ar
     3     9    10   ar
     4    10    11   ar
     5    11     1    1
     6     1     2   ar
     7     2     3   ar
     8     3     4   ar
     9     4    16    1
    10    16    17    1
    11    17    18   ar
    12    18    19   ar
    13    19    20   ar
    14    20    21   ar
    15    21    22   ar
    16     4     5   ar
    17     5     6   ar
    18    11    12   ar
    19    12    13   ar
    20    13    14    1
    21    13     8   ar
    22     6     1   ar
    23    22    17   ar
    24     7    15    1
@<TRIPOS>MOLECULE
*****
 22 24 0 0 0
SMALL
GASTEIGER

@<TRIPOS>ATOM
      1 C          63.5057   86.1005   13.2946 C.ar    1  UNL1        0.0001
      2 C          63.0219   87.1109   12.2972 C.ar    1  UNL1       -0.0003
      3 C          63.1999   88.5757   12.5669 C.ar    1  UNL1       -0.0039
      4 C          63.8617   89.0300   13.8340 C.ar    1  UNL1       -0.0178
      5 C          64.3455   88.0196   14.8314 C.ar    1  UNL1       -0.0039
      6 C          64.1675   86.5548   14.5617 C.ar    1  UNL1       -0.0003
      7 O          62.7939   80.2413   12.2160 O.3     1  UNL1       -0.5034
      8 C          62.9719   81.7061   12.4857 C.ar    1  UNL1        0.1610
      9 C          62.5610   82.2804   13.8090 C.ar    1  UNL1        0.0390
     10 C          62.7390   83.7452   14.0787 C.ar    1  UNL1        0.0033
     11 C          63.3278   84.6357   13.0250 C.ar    1  UNL1        0.0024
     12 C          63.7386   84.0614   11.7016 C.ar    1  UNL1        0.0328
     13 C          63.5606   82.5966   11.4320 C.ar    1  UNL1        0.1735
     14 F          63.9715   82.0223   10.1085 F       1  UNL1       -0.2010
     15 H          62.4261   79.6850   12.8742 H       1  UNL1        0.2923
     16 C          64.0396   90.4948   14.1036 C.3     1  UNL1        0.0527
     17 C          65.1910   91.2358   13.4910 C.ar    1  UNL1       -0.0147
     18 C          65.0157   91.9416   12.1790 C.ar    1  UNL1        0.0167
     19 C          66.1671   92.6826   11.5664 C.ar    1  UNL1        0.0986
     20 N          67.4937   92.7177   12.2656 N.ar    1  UNL1       -0.2423
     21 C          67.6689   92.0119   13.5774 C.ar    1  UNL1        0.0986
     22 C          66.5176   91.2709   14.1902 C.ar    1  UNL1        0.0167
@<TRIPOS>BOND
     1     7     8    1
     2     8     9   ar
     3     9    10   ar
     4    10    11   ar
     5    11     1    1
     6     1     2   ar
     7     2     3   ar
     8     3     4   ar
     9     4    16    1
    10    16    17    1
    11    17    18   ar
    12    18    19   ar
    13    19    20   ar
    14    20    21   ar
    15    21    22   ar
    16     4     5   ar
    17     5     6   ar
    18    11    12   ar
    19    12    13   ar
    20    13    14    1
    21    13     8   ar
    22     6     1   ar
    23    22    17   ar
    24     7    15    1
@<TRIPOS>MOLECULE
*****
 22 24 0 0 0
SMALL
GASTEIGER

@<TRIPOS>ATOM
      1 C          63.6179   90.3687   12.1003 C.ar    1  UNL1        0.0001
      2 C          63.3435   88.9746   12.5808 C.ar    1  UNL1       -0.0003
      3 C          62.3673   88.1059   11.8442 C.ar    1  UNL1       -0.0039
      4 C          61.6656   88.6315   10.6271 C.ar    1  UNL1       -0.0178
      5 C          61.9400   90.0256   10.1466 C.ar    1  UNL1       -0.0039
      6 C          62.9162   90.8943   10.8832 C.ar    1  UNL1       -0.0003
      7 O          67.5227   93.8432   15.0466 O.3     1  UNL1       -0.5034
      8 C          66.5465   92.9746   14.3100 C.ar    1  UNL1        0.1610
      9 C          66.0243   91.7230   14.9508 C.ar    1  UNL1        0.0390
     10 C          65.0481   90.8543   14.2142 C.ar    1  UNL1        0.0033
     11 C          64.5941   91.2374   12.8369 C.ar    1  UNL1        0.0024
     12 C          65.1163   92.4890   12.1961 C.ar    1  UNL1        0.0328
     13 C          66.0925   93.3576   12.9327 C.ar    1  UNL1        0.1735
     14 F          66.6147   94.6094   12.2918 F       1  UNL1       -0.2010
     15 H          67.8063   93.6040   15.9070 H       1  UNL1        0.2923
     16 C          60.6894   87.7628    9.8906 C.3     1  UNL1        0.0527
     17 C          61.1857   86.7358    8.9166 C.ar    1  UNL1       -0.0147
     18 C          62.5810   86.1987    9.0389 C.ar    1  UNL1        0.0167
     19 C          63.0774   85.1716    8.0649 C.ar    1  UNL1        0.0986
     20 N          62.1785   84.6815    6.9686 N.ar    1  UNL1       -0.2423
     21 C          60.7834   85.2185    6.8463 C.ar    1  UNL1        0.0986
     22 C          60.2869   86.2457    7.8203 C.ar    1  UNL1        0.0167
@<TRIPOS>BOND
     1     7     8    1
     2     8     9   ar
     3     9    10   ar
     4    10    11   ar
     5    11     1    1
     6     1     2   ar
     7     2     3   ar
     8     3     4   ar
     9     4    16    1
    10    16    17    1
    11    17    18   ar
    12    18    19   ar
    13    19    20   ar
    14    20    21   ar
    15    21    22   ar
    16     4     5   ar
    17     5     6   ar
    18    11    12   ar
    19    12    13   ar
    20    13    14    1
    21    13     8   ar
    22     6     1   ar
    23    22    17   ar
    24     7    15    1
@<TRIPOS>MOLECULE
*****
 22 24 0 0 0
SMALL
GASTEIGER

@<TRIPOS>ATOM
      1 C          62.3558   88.0668   10.6839 C.ar    1  UNL1        0.0001
      2 C          62.1580   89.5485   10.5605 C.ar    1  UNL1       -0.0003
      3 C          62.6217   90.4610   11.6571 C.ar    1  UNL1       -0.0039
      4 C          63.2831   89.8917   12.8770 C.ar    1  UNL1       -0.0178
      5 C          63.4809   88.4100   13.0005 C.ar    1  UNL1       -0.0039
      6 C          63.0173   87.4975   11.9039 C.ar    1  UNL1       -0.0003
      7 O          60.5013   84.4168    6.2978 O.3     1  UNL1       -0.5034
      8 C          60.9649   85.3293    7.3943 C.ar    1  UNL1        0.1610
      9 C          60.0468   86.3895    7.9262 C.ar    1  UNL1        0.0390
     10 C          60.5105   87.3020    9.0227 C.ar    1  UNL1        0.0033
     11 C          61.8922   87.1543    9.5874 C.ar    1  UNL1        0.0024
     12 C          62.8103   86.0940    9.0555 C.ar    1  UNL1        0.0328
     13 C          62.3467   85.1815    7.9590 C.ar    1  UNL1        0.1735
     14 F          63.2649   84.1212    7.4271 F       1  UNL1       -0.2010
     15 H          59.6381   84.5091    5.9450 H       1  UNL1        0.2923
     16 C          63.7467   90.8042   13.9736 C.3     1  UNL1        0.0527
     17 C          65.0846   91.4753   13.8754 C.ar    1  UNL1       -0.0147
     18 C          66.0808   91.3285   14.9873 C.ar    1  UNL1        0.0167
     19 C          67.4186   91.9995   14.8892 C.ar    1  UNL1        0.0986
     20 N          67.7605   92.8174   13.6791 N.ar    1  UNL1       -0.2423
     21 C          66.7645   92.9643   12.5673 C.ar    1  UNL1        0.0986
     22 C          65.4265   92.2932   12.6654 C.ar    1  UNL1        0.0167
@<TRIPOS>BOND
     1     7     8    1
     2     8     9   ar
     3     9    10   ar
     4    10    11   ar
     5    11     1    1
     6     1     2   ar
     7     2     3   ar
     8     3     4   ar
     9     4    16    1
    10    16    17    1
    11    17    18   ar
    12    18    19   ar
    13    19    20   ar
    14    20    21   ar
    15    21    22   ar
    16     4     5   ar
    17     5     6   ar
    18    11    12   ar
    19    12    13   ar
    20    13    14    1
    21    13     8   ar
    22     6     1   ar
    23    22    17   ar
    24     7    15    1
@<TRIPOS>MOLECULE
*****
 22 24 0 0 0
SMALL
GASTEIGER

@<TRIPOS>ATOM
      1 C          64.4922   91.2592   12.7585 C.ar    1  UNL1        0.0001
      2 C          63.4014   90.3743   13.2845 C.ar    1  UNL1       -0.0003
      3 C          62.2626   89.9767   12.3928 C.ar    1  UNL1       -0.0039
      4 C          62.2147   90.4641   10.9751 C.ar    1  UNL1       -0.0178
      5 C          63.3055   91.3491   10.4490 C.ar    1  UNL1       -0.0039
      6 C          64.4443   91.7467   11.3407 C.ar    1  UNL1       -0.0003
      7 O          69.0474   92.8495   16.3252 O.3     1  UNL1       -0.5034
      8 C          67.9086   92.4519   15.4335 C.ar    1  UNL1        0.1610
      9 C          66.5080   92.4308   15.9700 C.ar    1  UNL1        0.0390
     10 C          65.3692   92.0332   15.0783 C.ar    1  UNL1        0.0033
     11 C          65.6310   91.6568   13.6501 C.ar    1  UNL1        0.0024
     12 C          67.0316   91.6779   13.1137 C.ar    1  UNL1        0.0328
     13 C          68.1704   92.0755   14.0054 C.ar    1  UNL1        0.1735
     14 F          69.5711   92.0966   13.4688 F       1  UNL1       -0.2010
     15 H          68.8839   93.0846   17.2174 H       1  UNL1        0.2923
     16 C          61.0759   90.0666   10.0834 C.3     1  UNL1        0.0527
     17 C          61.0558   88.7050    9.4545 C.ar    1  UNL1       -0.0147
     18 C          62.1598   87.7304    9.7402 C.ar    1  UNL1        0.0167
     19 C          62.1397   86.3688    9.1113 C.ar    1  UNL1        0.0986
     20 N          61.0156   85.9817    8.1966 N.ar    1  UNL1       -0.2423
     21 C          59.9117   86.9561    7.9109 C.ar    1  UNL1        0.0986
     22 C          59.9317   88.3178    8.5398 C.ar    1  UNL1        0.0167
@<TRIPOS>BOND
     1     7     8    1
     2     8     9   ar
     3     9    10   ar
     4    10    11   ar
     5    11     1    1
     6     1     2   ar
     7     2     3   ar
     8     3     4   ar
     9     4    16    1
    10    16    17    1
    11    17    18   ar
    12    18    19   ar
    13    19    20   ar
    14    20    21   ar
    15    21    22   ar
    16     4     5   ar
    17     5     6   ar
    18    11    12   ar
    19    12    13   ar
    20    13    14    1
    21    13     8   ar
    22     6     1   ar
    23    22    17   ar
    24     7    15    1
