@<TRIPOS>MOLECULE
*****
 24 27 0 0 0
SMALL
GASTEIGER

@<TRIPOS>ATOM
      1 C          62.7577   85.9663   12.5101 C.3     1  UNL1        0.2082
      2 S          61.9132   85.6062   11.3239 S.3     1  UNL1       -0.0753
      3 C          61.4440   86.6773   10.3844 C.ar    1  UNL1        0.0443
      4 C          60.5995   86.3172    9.1982 C.ar    1  UNL1        0.0077
      5 C          60.1304   87.3883    8.2587 C.ar    1  UNL1        0.0006
      6 C          60.5058   88.8194    8.5054 C.ar    1  UNL1        0.0015
      7 C          61.3504   89.1795    9.6916 C.ar    1  UNL1        0.0182
      8 C          61.8195   88.1084   10.6311 C.ar    1  UNL1        0.0768
      9 N          62.6640   88.4685   11.8173 N.ar    1  UNL1       -0.2242
     10 C          63.1331   87.3974   12.7568 C.ar    1  UNL1        0.2069
     11 N          63.9480   88.0500   13.8339 N.ar    1  UNL1       -0.0545
     12 O          63.9824   89.5243   13.5601 O.2     1  UNL1       -0.2950
     13 C          63.1889   89.7830   12.3137 C.ar    1  UNL1        0.4472
     14 O          62.9604   91.1212   11.6758 O.2     1  UNL1       -0.2203
     15 C          62.6643   84.4811   12.6981 C.ar    1  UNL1        0.0189
     16 C          63.0003   83.5589   11.5636 C.ar    1  UNL1       -0.0002
     17 C          62.9069   82.0736   11.7516 C.ar    1  UNL1        0.0065
     18 C          62.4775   81.5105   13.0739 C.ar    1  UNL1        0.0345
     19 BR         62.3841   80.0252   13.2619 Br      1  UNL1       -0.0490
     20 C          62.1415   82.4326   14.2082 C.ar    1  UNL1        0.0065
     21 C          62.2349   83.9178   14.0203 C.ar    1  UNL1       -0.0002
     22 O          63.5698   85.8105   13.7616 O.3     1  UNL1       -0.3379
     23 C          65.8293   85.1210   14.8430 C.3     1  UNL1        0.0347
     24 C          64.8137   84.9724   13.7491 C.3     1  UNL1        0.1440
@<TRIPOS>BOND
     1    23    24    1
     2    24    22    1
     3    22     1    1
     4     1    15    1
     5    15    16   ar
     6    16    17   ar
     7    17    18   ar
     8    18    19    1
     9    18    20   ar
    10    20    21   ar
    11     1     2    1
    12     2     3    1
    13     3     4   ar
    14     4     5   ar
    15     5     6   ar
    16     6     7   ar
    17     7     8   ar
    18     8     9    1
    19     9    10   ar
    20    10    11   ar
    21    11    12   ar
    22    12    13   ar
    23    13    14    2
    24    10     1    1
    25    21    15   ar
    26     8     3   ar
    27    13     9   ar
@<TRIPOS>MOLECULE
*****
 24 27 0 0 0
SMALL
GASTEIGER

@<TRIPOS>ATOM
      1 C          62.5307   90.0319   12.1075 C.3     1  UNL1        0.2082
      2 S          63.2482   90.7086   10.9774 S.3     1  UNL1       -0.0753
      3 C          64.3724   91.6593   11.2649 C.ar    1  UNL1        0.0443
      4 C          65.0899   92.3360   10.1348 C.ar    1  UNL1        0.0077
      5 C          66.2140   93.2866   10.4223 C.ar    1  UNL1        0.0006
      6 C          66.6207   93.5604   11.8399 C.ar    1  UNL1        0.0015
      7 C          65.9032   92.8836   12.9700 C.ar    1  UNL1        0.0182
      8 C          64.7791   91.9331   12.6825 C.ar    1  UNL1        0.0768
      9 N          64.0615   91.2563   13.8126 N.ar    1  UNL1       -0.2242
     10 C          62.9374   90.3057   13.5251 C.ar    1  UNL1        0.2069
     11 N          62.4193   89.7907   14.8352 N.ar    1  UNL1       -0.0545
     12 O          63.2233   90.4230   15.9324 O.2     1  UNL1       -0.2950
     13 C          64.2382   91.3288   15.3004 C.ar    1  UNL1        0.4472
     14 O          65.2519   92.1609   16.0284 O.2     1  UNL1       -0.2203
     15 C          61.7850   89.4533   10.9418 C.ar    1  UNL1        0.0189
     16 C          61.9824   88.0149   10.5643 C.ar    1  UNL1       -0.0002
     17 C          61.2366   87.4363    9.3985 C.ar    1  UNL1        0.0065
     18 C          60.2934   88.2959    8.6102 C.ar    1  UNL1        0.0345
     19 BR         59.5476   87.7173    7.4444 Br      1  UNL1       -0.0490
     20 C          60.0960   89.7342    8.9877 C.ar    1  UNL1        0.0065
     21 C          60.8418   90.3128   10.1534 C.ar    1  UNL1       -0.0002
     22 O          61.5542   89.1542   12.8328 O.3     1  UNL1       -0.3379
     23 C          58.9989   88.7289   12.6332 C.3     1  UNL1        0.0347
     24 C          60.1410   89.6135   13.0371 C.3     1  UNL1        0.1440
@<TRIPOS>BOND
     1    23    24    1
     2    24    22    1
     3    22     1    1
     4     1    15    1
     5    15    16   ar
     6    16    17   ar
     7    17    18   ar
     8    18    19    1
     9    18    20   ar
    10    20    21   ar
    11     1     2    1
    12     2     3    1
    13     3     4   ar
    14     4     5   ar
    15     5     6   ar
    16     6     7   ar
    17     7     8   ar
    18     8     9    1
    19     9    10   ar
    20    10    11   ar
    21    11    12   ar
    22    12    13   ar
    23    13    14    2
    24    10     1    1
    25    21    15   ar
    26     8     3   ar
    27    13     9   ar
@<TRIPOS>MOLECULE
*****
 24 27 0 0 0
SMALL
GASTEIGER

@<TRIPOS>ATOM
      1 C          64.3655   90.3043   13.7264 C.3     1  UNL1        0.2082
      2 S          65.1878   90.6727   14.9256 S.3     1  UNL1       -0.0753
      3 C          66.0586   91.8936   14.8916 C.ar    1  UNL1        0.0443
      4 C          66.8808   92.2620   16.0908 C.ar    1  UNL1        0.0077
      5 C          67.7515   93.4829   16.0568 C.ar    1  UNL1        0.0006
      6 C          67.8000   94.3354   14.8235 C.ar    1  UNL1        0.0015
      7 C          66.9777   93.9670   13.6243 C.ar    1  UNL1        0.0182
      8 C          66.1070   92.7461   13.6584 C.ar    1  UNL1        0.0768
      9 N          65.2847   92.3777   12.4591 N.ar    1  UNL1       -0.2242
     10 C          64.4140   91.1568   12.4932 C.ar    1  UNL1        0.2069
     11 N          63.7200   91.0453   11.1681 N.ar    1  UNL1       -0.0545
     12 O          64.1618   92.1973   10.3151 O.2     1  UNL1       -0.2950
     13 C          65.1289   93.0208   11.1130 C.ar    1  UNL1        0.4472
     14 O          65.8189   94.2683   10.6467 O.2     1  UNL1       -0.2203
     15 C          63.9857   89.1894   14.6552 C.ar    1  UNL1        0.0189
     16 C          63.3137   89.4967   15.9607 C.ar    1  UNL1       -0.0002
     17 C          62.9339   88.3818   16.8895 C.ar    1  UNL1        0.0065
     18 C          63.2260   86.9595   16.5129 C.ar    1  UNL1        0.0345
     19 BR         62.8462   85.8445   17.4417 Br      1  UNL1       -0.0490
     20 C          63.8980   86.6522   15.2075 C.ar    1  UNL1        0.0065
     21 C          64.2778   87.7671   14.2787 C.ar    1  UNL1       -0.0002
     22 O          63.4113   89.5487   12.8498 O.3     1  UNL1       -0.3379
     23 C          61.0411   89.3064   11.8136 C.3     1  UNL1        0.0347
     24 C          61.9567   89.9144   12.8344 C.3     1  UNL1        0.1440
@<TRIPOS>BOND
     1    23    24    1
     2    24    22    1
     3    22     1    1
     4     1    15    1
     5    15    16   ar
     6    16    17   ar
     7    17    18   ar
     8    18    19    1
     9    18    20   ar
    10    20    21   ar
    11     1     2    1
    12     2     3    1
    13     3     4   ar
    14     4     5   ar
    15     5     6   ar
    16     6     7   ar
    17     7     8   ar
    18     8     9    1
    19     9    10   ar
    20    10    11   ar
    21    11    12   ar
    22    12    13   ar
    23    13    14    2
    24    10     1    1
    25    21    15   ar
    26     8     3   ar
    27    13     9   ar
@<TRIPOS>MOLECULE
*****
 24 27 0 0 0
SMALL
GASTEIGER

@<TRIPOS>ATOM
      1 C          62.3992   86.6717   11.7172 C.3     1  UNL1        0.2082
      2 S          62.1502   85.3035   11.1552 S.3     1  UNL1       -0.0753
      3 C          62.7538   84.0999   11.8164 C.ar    1  UNL1        0.0443
      4 C          62.5048   82.7316   11.2545 C.ar    1  UNL1        0.0077
      5 C          63.1084   81.5281   11.9156 C.ar    1  UNL1        0.0006
      6 C          63.9609   81.6929   13.1388 C.ar    1  UNL1        0.0015
      7 C          64.2099   83.0611   13.7007 C.ar    1  UNL1        0.0182
      8 C          63.6063   84.2646   13.0395 C.ar    1  UNL1        0.0768
      9 N          63.8553   85.6330   13.6015 N.ar    1  UNL1       -0.2242
     10 C          63.2517   86.8365   12.9403 C.ar    1  UNL1        0.2069
     11 N          63.6700   88.0502   13.7162 N.ar    1  UNL1       -0.0545
     12 O          64.5321   87.5967   14.8568 O.2     1  UNL1       -0.2950
     13 C          64.6466   86.1028   14.7860 C.ar    1  UNL1        0.4472
     14 O          65.4172   85.2316   15.7332 O.2     1  UNL1       -0.2203
     15 C          61.5281   87.0248   10.5482 C.ar    1  UNL1        0.0189
     16 C          60.3370   87.9158   10.7425 C.ar    1  UNL1       -0.0002
     17 C          59.4659   88.2688    9.5735 C.ar    1  UNL1        0.0065
     18 C          59.7857   87.7308    8.2103 C.ar    1  UNL1        0.0345
     19 BR         58.9146   88.0839    7.0413 Br      1  UNL1       -0.0490
     20 C          60.9767   86.8398    8.0161 C.ar    1  UNL1        0.0065
     21 C          61.8478   86.4868    9.1850 C.ar    1  UNL1       -0.0002
     22 O          62.3456   88.1626   11.8732 O.3     1  UNL1       -0.3379
     23 C          62.9348   90.5380   11.0009 C.3     1  UNL1        0.0347
     24 C          62.9418   89.0489   10.8200 C.3     1  UNL1        0.1440
@<TRIPOS>BOND
     1    23    24    1
     2    24    22    1
     3    22     1    1
     4     1    15    1
     5    15    16   ar
     6    16    17   ar
     7    17    18   ar
     8    18    19    1
     9    18    20   ar
    10    20    21   ar
    11     1     2    1
    12     2     3    1
    13     3     4   ar
    14     4     5   ar
    15     5     6   ar
    16     6     7   ar
    17     7     8   ar
    18     8     9    1
    19     9    10   ar
    20    10    11   ar
    21    11    12   ar
    22    12    13   ar
    23    13    14    2
    24    10     1    1
    25    21    15   ar
    26     8     3   ar
    27    13     9   ar
@<TRIPOS>MOLECULE
*****
 24 27 0 0 0
SMALL
GASTEIGER

@<TRIPOS>ATOM
      1 C          63.1611   89.4788   12.3374 C.3     1  UNL1        0.2082
      2 S          63.7014   88.3615   13.1797 S.3     1  UNL1       -0.0753
      3 C          63.3620   86.9389   12.8460 C.ar    1  UNL1        0.0443
      4 C          63.9023   85.8216   13.6883 C.ar    1  UNL1        0.0077
      5 C          63.5629   84.3991   13.3546 C.ar    1  UNL1        0.0006
      6 C          62.6832   84.0940   12.1786 C.ar    1  UNL1        0.0015
      7 C          62.1429   85.2114   11.3363 C.ar    1  UNL1        0.0182
      8 C          62.4823   86.6338   11.6700 C.ar    1  UNL1        0.0768
      9 N          61.9419   87.7513   10.8276 N.ar    1  UNL1       -0.2242
     10 C          62.2813   89.1737   11.1613 C.ar    1  UNL1        0.2069
     11 N          61.6065   90.0593   10.1562 N.ar    1  UNL1       -0.0545
     12 O          60.8500   89.1841    9.2013 O.2     1  UNL1       -0.2950
     13 C          61.0573   87.7577    9.6163 C.ar    1  UNL1        0.4472
     14 O          60.4812   86.5497    8.9389 O.2     1  UNL1       -0.2203
     15 C          63.9480   90.2670   13.3420 C.ar    1  UNL1        0.0189
     16 C          65.2643   90.8735   12.9549 C.ar    1  UNL1       -0.0002
     17 C          66.0513   91.6617   13.9596 C.ar    1  UNL1        0.0065
     18 C          65.5221   91.8435   15.3513 C.ar    1  UNL1        0.0345
     19 BR         66.3091   92.6317   16.3560 Br      1  UNL1       -0.0490
     20 C          64.2058   91.2370   15.7383 C.ar    1  UNL1        0.0065
     21 C          63.4189   90.4488   14.7337 C.ar    1  UNL1       -0.0002
     22 O          62.8940   90.8699   11.8439 O.3     1  UNL1       -0.3379
     23 C          64.4768   92.4761   10.5535 C.3     1  UNL1        0.0347
     24 C          63.5002   91.3376   10.5540 C.3     1  UNL1        0.1440
@<TRIPOS>BOND
     1    23    24    1
     2    24    22    1
     3    22     1    1
     4     1    15    1
     5    15    16   ar
     6    16    17   ar
     7    17    18   ar
     8    18    19    1
     9    18    20   ar
    10    20    21   ar
    11     1     2    1
    12     2     3    1
    13     3     4   ar
    14     4     5   ar
    15     5     6   ar
    16     6     7   ar
    17     7     8   ar
    18     8     9    1
    19     9    10   ar
    20    10    11   ar
    21    11    12   ar
    22    12    13   ar
    23    13    14    2
    24    10     1    1
    25    21    15   ar
    26     8     3   ar
    27    13     9   ar
@<TRIPOS>MOLECULE
*****
 24 27 0 0 0
SMALL
GASTEIGER

@<TRIPOS>ATOM
      1 C          62.5581   87.0592   10.6232 C.3     1  UNL1        0.2082
      2 S          62.7521   85.6411   11.0718 S.3     1  UNL1       -0.0753
      3 C          63.2292   85.3537   12.4647 C.ar    1  UNL1        0.0443
      4 C          63.4232   83.9357   12.9133 C.ar    1  UNL1        0.0077
      5 C          63.9002   83.6483   14.3061 C.ar    1  UNL1        0.0006
      6 C          64.1831   84.7791   15.2502 C.ar    1  UNL1        0.0015
      7 C          63.9891   86.1972   14.8016 C.ar    1  UNL1        0.0182
      8 C          63.5121   86.4845   13.4088 C.ar    1  UNL1        0.0768
      9 N          63.3180   87.9026   12.9601 N.ar    1  UNL1       -0.2242
     10 C          62.8410   88.1900   11.5673 C.ar    1  UNL1        0.2069
     11 N          62.7424   89.6783   11.4090 N.ar    1  UNL1       -0.0545
     12 O          63.1584   90.3108   12.7039 O.2     1  UNL1       -0.2950
     13 C          63.5142   89.2133   13.6625 C.ar    1  UNL1        0.4472
     14 O          63.9837   89.3948   15.0756 O.2     1  UNL1       -0.2203
     15 C          62.1597   86.3335    9.3724 C.ar    1  UNL1        0.0189
     16 C          60.7218   86.3075    8.9460 C.ar    1  UNL1       -0.0002
     17 C          60.3234   85.5817    7.6951 C.ar    1  UNL1        0.0065
     18 C          61.3629   84.8819    6.8708 C.ar    1  UNL1        0.0345
     19 BR         60.9646   84.1560    5.6199 Br      1  UNL1       -0.0490
     20 C          62.8008   84.9078    7.2972 C.ar    1  UNL1        0.0065
     21 C          63.1991   85.6336    8.5480 C.ar    1  UNL1       -0.0002
     22 O          62.2257   88.2253    9.7401 O.3     1  UNL1       -0.3379
     23 C          60.2675   89.5291    8.6374 C.3     1  UNL1        0.0347
     24 C          60.8836   88.8869    9.8449 C.3     1  UNL1        0.1440
@<TRIPOS>BOND
     1    23    24    1
     2    24    22    1
     3    22     1    1
     4     1    15    1
     5    15    16   ar
     6    16    17   ar
     7    17    18   ar
     8    18    19    1
     9    18    20   ar
    10    20    21   ar
    11     1     2    1
    12     2     3    1
    13     3     4   ar
    14     4     5   ar
    15     5     6   ar
    16     6     7   ar
    17     7     8   ar
    18     8     9    1
    19     9    10   ar
    20    10    11   ar
    21    11    12   ar
    22    12    13   ar
    23    13    14    2
    24    10     1    1
    25    21    15   ar
    26     8     3   ar
    27    13     9   ar
@<TRIPOS>MOLECULE
*****
 24 27 0 0 0
SMALL
GASTEIGER

@<TRIPOS>ATOM
      1 C          62.1697   93.6080   -1.6760 C.3     1  UNL1        0.2082
      2 S          61.0896   93.4854   -2.7095 S.3     1  UNL1       -0.0753
      3 C          59.6753   93.2166   -2.2882 C.ar    1  UNL1        0.0443
      4 C          58.5952   93.0939   -3.3218 C.ar    1  UNL1        0.0077
      5 C          57.1810   92.8251   -2.9004 C.ar    1  UNL1        0.0006
      6 C          56.8468   92.6790   -1.4454 C.ar    1  UNL1        0.0015
      7 C          57.9269   92.8017   -0.4118 C.ar    1  UNL1        0.0182
      8 C          59.3411   93.0705   -0.8332 C.ar    1  UNL1        0.0768
      9 N          60.4213   93.1932    0.2004 N.ar    1  UNL1       -0.2242
     10 C          61.8355   93.4620   -0.2210 C.ar    1  UNL1        0.2069
     11 N          62.6821   93.5322    1.0153 N.ar    1  UNL1       -0.0545
     12 O          61.7911   93.3068    2.2007 O.2     1  UNL1       -0.2950
     13 C          60.3938   93.0973    1.6971 C.ar    1  UNL1        0.4472
     14 O          59.1818   92.8375    2.5418 O.2     1  UNL1       -0.2203
     15 C          62.9763   93.8226   -2.9223 C.ar    1  UNL1        0.0189
     16 C          63.9228   92.7594   -3.3955 C.ar    1  UNL1       -0.0002
     17 C          64.7294   92.9740   -4.6419 C.ar    1  UNL1        0.0065
     18 C          64.5894   94.2517   -5.4150 C.ar    1  UNL1        0.0345
     19 BR         65.3960   94.4663   -6.6614 Br      1  UNL1       -0.0490
     20 C          63.6430   95.3149   -4.9418 C.ar    1  UNL1        0.0065
     21 C          62.8364   95.1003   -3.6955 C.ar    1  UNL1       -0.0002
     22 O          63.5299   93.8053   -1.0752 O.3     1  UNL1       -0.3379
     23 C          65.3995   95.3895   -0.2121 C.3     1  UNL1        0.0347
     24 C          64.0590   95.1915   -0.8554 C.3     1  UNL1        0.1440
@<TRIPOS>BOND
     1    23    24    1
     2    24    22    1
     3    22     1    1
     4     1    15    1
     5    15    16   ar
     6    16    17   ar
     7    17    18   ar
     8    18    19    1
     9    18    20   ar
    10    20    21   ar
    11     1     2    1
    12     2     3    1
    13     3     4   ar
    14     4     5   ar
    15     5     6   ar
    16     6     7   ar
    17     7     8   ar
    18     8     9    1
    19     9    10   ar
    20    10    11   ar
    21    11    12   ar
    22    12    13   ar
    23    13    14    2
    24    10     1    1
    25    21    15   ar
    26     8     3   ar
    27    13     9   ar
@<TRIPOS>MOLECULE
*****
 24 27 0 0 0
SMALL
GASTEIGER

@<TRIPOS>ATOM
      1 C          62.5341   86.3863   11.4669 C.3     1  UNL1        0.2082
      2 S          63.2771   86.5270   12.7623 S.3     1  UNL1       -0.0753
      3 C          63.6451   87.8891   13.2717 C.ar    1  UNL1        0.0443
      4 C          64.3880   88.0298   14.5672 C.ar    1  UNL1        0.0077
      5 C          64.7559   89.3918   15.0766 C.ar    1  UNL1        0.0006
      6 C          64.3810   90.6131   14.2905 C.ar    1  UNL1        0.0015
      7 C          63.6380   90.4724   12.9951 C.ar    1  UNL1        0.0182
      8 C          63.2701   89.1104   12.4857 C.ar    1  UNL1        0.0768
      9 N          62.5271   88.9696   11.1902 N.ar    1  UNL1       -0.2242
     10 C          62.1591   87.6076   10.6808 C.ar    1  UNL1        0.2069
     11 N          61.4316   87.7800    9.3805 N.ar    1  UNL1       -0.0545
     12 O          61.3499   89.2486    9.0862 O.2     1  UNL1       -0.2950
     13 C          62.0270   89.9838   10.2047 C.ar    1  UNL1        0.4472
     14 O          62.1775   91.4719   10.3178 O.2     1  UNL1       -0.2203
     15 C          62.6672   84.9420   11.8491 C.ar    1  UNL1        0.0189
     16 C          62.2618   84.4887   13.2204 C.ar    1  UNL1       -0.0002
     17 C          62.3948   83.0442   13.6027 C.ar    1  UNL1        0.0065
     18 C          62.9332   82.0533   12.6137 C.ar    1  UNL1        0.0345
     19 BR         63.0662   80.6088   12.9960 Br      1  UNL1       -0.0490
     20 C          63.3385   82.5066   11.2425 C.ar    1  UNL1        0.0065
     21 C          63.2055   83.9509   10.8603 C.ar    1  UNL1       -0.0002
     22 O          61.8374   85.7440   10.3042 O.3     1  UNL1       -0.3379
     23 C          61.8285   85.0222    7.8083 C.3     1  UNL1        0.0347
     24 C          62.4871   85.7347    8.9522 C.3     1  UNL1        0.1440
@<TRIPOS>BOND
     1    23    24    1
     2    24    22    1
     3    22     1    1
     4     1    15    1
     5    15    16   ar
     6    16    17   ar
     7    17    18   ar
     8    18    19    1
     9    18    20   ar
    10    20    21   ar
    11     1     2    1
    12     2     3    1
    13     3     4   ar
    14     4     5   ar
    15     5     6   ar
    16     6     7   ar
    17     7     8   ar
    18     8     9    1
    19     9    10   ar
    20    10    11   ar
    21    11    12   ar
    22    12    13   ar
    23    13    14    2
    24    10     1    1
    25    21    15   ar
    26     8     3   ar
    27    13     9   ar
@<TRIPOS>MOLECULE
*****
 24 27 0 0 0
SMALL
GASTEIGER

@<TRIPOS>ATOM
      1 C          63.4727   90.5600   12.7725 C.3     1  UNL1        0.2082
      2 S          63.7636   91.2236   11.4591 S.3     1  UNL1       -0.0753
      3 C          64.7759   92.3280   11.3847 C.ar    1  UNL1        0.0443
      4 C          65.0668   92.9916   10.0713 C.ar    1  UNL1        0.0077
      5 C          66.0791   94.0959    9.9970 C.ar    1  UNL1        0.0006
      6 C          66.8005   94.5367   11.2360 C.ar    1  UNL1        0.0015
      7 C          66.5096   93.8732   12.5494 C.ar    1  UNL1        0.0182
      8 C          65.4973   92.7688   12.6237 C.ar    1  UNL1        0.0768
      9 N          65.2064   92.1052   13.9372 N.ar    1  UNL1       -0.2242
     10 C          64.1941   91.0008   14.0115 C.ar    1  UNL1        0.2069
     11 N          64.1177   90.5372   15.4360 N.ar    1  UNL1       -0.0545
     12 O          65.0828   91.3551   16.2421 O.2     1  UNL1       -0.2950
     13 C          65.7557   92.3241   15.3157 C.ar    1  UNL1        0.4472
     14 O          66.7952   93.3347   15.7003 O.2     1  UNL1       -0.2203
     15 C          62.5375   89.7967   11.8822 C.ar    1  UNL1        0.0189
     16 C          63.0758   89.0283   10.7117 C.ar    1  UNL1       -0.0002
     17 C          62.1405   88.2650    9.8214 C.ar    1  UNL1        0.0065
     18 C          60.6670   88.2700   10.1016 C.ar    1  UNL1        0.0345
     19 BR         59.7316   87.5067    9.2113 Br      1  UNL1       -0.0490
     20 C          60.1286   89.0383   11.2720 C.ar    1  UNL1        0.0065
     21 C          61.0639   89.8016   12.1622 C.ar    1  UNL1       -0.0002
     22 O          62.8570   89.6313   13.7767 O.3     1  UNL1       -0.3379
     23 C          63.8642   87.2368   13.7316 C.3     1  UNL1        0.0347
     24 C          63.6892   88.5598   14.4164 C.3     1  UNL1        0.1440
@<TRIPOS>BOND
     1    23    24    1
     2    24    22    1
     3    22     1    1
     4     1    15    1
     5    15    16   ar
     6    16    17   ar
     7    17    18   ar
     8    18    19    1
     9    18    20   ar
    10    20    21   ar
    11     1     2    1
    12     2     3    1
    13     3     4   ar
    14     4     5   ar
    15     5     6   ar
    16     6     7   ar
    17     7     8   ar
    18     8     9    1
    19     9    10   ar
    20    10    11   ar
    21    11    12   ar
    22    12    13   ar
    23    13    14    2
    24    10     1    1
    25    21    15   ar
    26     8     3   ar
    27    13     9   ar
