@<TRIPOS>MOLECULE
*****
 43 48 0 0 0
SMALL
GASTEIGER

@<TRIPOS>ATOM
      1 C          59.2009   88.7355    7.2622 C.2     1  UNL1        0.2252
      2 O          58.2362   87.5964    7.1150 O.2     1  UNL1       -0.2749
      3 N          60.1118   88.7977    8.4523 N.am    1  UNL1       -0.2794
      4 C          60.0580   87.7209    9.4951 C.3     1  UNL1        0.0953
      5 C          60.9689   87.7831   10.6852 C.3     1  UNL1        0.0442
      6 C          61.9337   88.9222   10.8325 C.3     1  UNL1        0.0933
      7 C          61.9876   89.9990    9.7897 C.3     1  UNL1        0.0442
      8 C          61.0766   89.9367    8.5996 C.3     1  UNL1        0.0953
      9 N          62.8447   88.9845   12.0226 N.ar    1  UNL1       -0.2814
     10 C          63.4627   90.2252   12.5960 C.ar    1  UNL1        0.3354
     11 O          63.2783   91.6215   12.0799 O.2     1  UNL1       -0.2459
     12 N          64.2974   89.8244   13.7760 N.ar    1  UNL1       -0.2587
     13 C          64.1954   88.3360   13.9320 C.ar    1  UNL1        0.0863
     14 C          64.8040   87.3863   14.9207 C.ar    1  UNL1        0.0487
     15 C          64.5148   85.9176   14.8258 C.ar    1  UNL1        0.1417
     16 F          65.1234   84.9678   15.8146 F       1  UNL1       -0.2041
     17 C          63.6169   85.3985   13.7421 C.ar    1  UNL1        0.0312
     18 C          63.0082   86.3481   12.7533 C.ar    1  UNL1        0.0211
     19 C          63.2975   87.8169   12.8483 C.ar    1  UNL1        0.0801
     20 C          65.0944   90.7495   14.6472 C.ar    1  UNL1        0.0727
     21 C          64.4472   91.4118   15.8273 C.ar    1  UNL1        0.0474
     22 C          65.2441   92.3370   16.6985 C.ar    1  UNL1        0.1438
     23 F          64.5969   92.9993   17.8785 F       1  UNL1       -0.2040
     24 C          66.6883   92.5998   16.3897 C.ar    1  UNL1        0.0593
     25 C          67.3354   91.9375   15.2096 C.ar    1  UNL1        0.1438
     26 F          68.7796   92.2004   14.9008 F       1  UNL1       -0.2040
     27 C          66.5385   91.0124   14.3384 C.ar    1  UNL1        0.0474
     28 N          59.3625   91.9659    4.1337 N.3     1  UNL1       -0.2689
     29 C          60.6112   91.2264    4.5134 C.3     1  UNL1        0.0729
     30 C          60.5573   90.1496    5.5562 C.3     1  UNL1        0.0264
     31 C          59.2548   89.8123    6.2193 C.3     1  UNL1        0.0795
     32 C          58.0062   90.5517    5.8396 C.3     1  UNL1        0.0264
     33 C          58.0601   91.6285    4.7968 C.3     1  UNL1        0.0729
     34 C          59.4164   93.0428    3.0908 C.3     1  UNL1        0.0993
     35 N          64.4351   92.9329    1.7487 N.pl3   1  UNL1       -0.3426
     36 C          62.9864   92.9530    1.3598 C.ar    1  UNL1        0.1251
     37 C          61.9257   92.9878    2.4198 C.ar    1  UNL1        0.0310
     38 C          60.4771   93.0079    2.0308 C.ar    1  UNL1       -0.0018
     39 C          60.0893   92.9932    0.5819 C.ar    1  UNL1        0.0179
     40 C          61.1501   92.9584   -0.4781 C.ar    1  UNL1        0.1000
     41 N          62.5987   92.9383   -0.0891 N.ar    1  UNL1       -0.2296
     42 H          64.6896   92.9426    2.6997 H       1  UNL1        0.1437
     43 H          65.1312   92.9100    1.0530 H       1  UNL1        0.1437
@<TRIPOS>BOND
     1    35    36    1
     2    36    37   ar
     3    37    38   ar
     4    38    34    1
     5    34    28    1
     6    28    29    1
     7    29    30    1
     8    30    31    1
     9    31     1    1
    10     1     2    2
    11     1     3   am
    12     3     4    1
    13     4     5    1
    14     5     6    1
    15     6     9    1
    16     9    10   ar
    17    10    11    2
    18    10    12   ar
    19    12    20    1
    20    20    21   ar
    21    21    22   ar
    22    22    23    1
    23    22    24   ar
    24    24    25   ar
    25    25    26    1
    26    25    27   ar
    27    12    13   ar
    28    13    14   ar
    29    14    15   ar
    30    15    16    1
    31    15    17   ar
    32    17    18   ar
    33    18    19   ar
    34     6     7    1
    35     7     8    1
    36    31    32    1
    37    32    33    1
    38    38    39   ar
    39    39    40   ar
    40    40    41   ar
    41    41    36   ar
    42    33    28    1
    43     8     3    1
    44    19     9   ar
    45    27    20   ar
    46    19    13   ar
    47    35    42    1
    48    35    43    1
@<TRIPOS>MOLECULE
*****
 43 48 0 0 0
SMALL
GASTEIGER

@<TRIPOS>ATOM
      1 C          59.2587   88.7306    7.2144 C.2     1  UNL1        0.2252
      2 O          58.3484   87.5540    7.0222 O.2     1  UNL1       -0.2749
      3 N          60.1611   88.7931    8.4109 N.am    1  UNL1       -0.2794
      4 C          60.1532   87.6789    9.4152 C.3     1  UNL1        0.0953
      5 C          61.0557   87.7414   10.6117 C.3     1  UNL1        0.0442
      6 C          61.9660   88.9180   10.8040 C.3     1  UNL1        0.0933
      7 C          61.9739   90.0321    9.7997 C.3     1  UNL1        0.0442
      8 C          61.0714   89.9696    8.6031 C.3     1  UNL1        0.0953
      9 N          62.8685   88.9805   12.0005 N.ar    1  UNL1       -0.2814
     10 C          63.4910   90.2200   12.5716 C.ar    1  UNL1        0.3354
     11 O          63.3205   91.6146   12.0464 O.2     1  UNL1       -0.2459
     12 N          64.3141   89.8199   13.7600 N.ar    1  UNL1       -0.2587
     13 C          64.2002   88.3332   13.9235 C.ar    1  UNL1        0.0863
     14 C          64.7947   87.3848   14.9221 C.ar    1  UNL1        0.0487
     15 C          64.4957   85.9176   14.8332 C.ar    1  UNL1        0.1417
     16 F          65.0901   84.9691   15.8317 F       1  UNL1       -0.2041
     17 C          63.6022   85.3988   13.7457 C.ar    1  UNL1        0.0312
     18 C          63.0078   86.3472   12.7471 C.ar    1  UNL1        0.0211
     19 C          63.3068   87.8144   12.8360 C.ar    1  UNL1        0.0801
     20 C          65.1111   90.7442   14.6320 C.ar    1  UNL1        0.0727
     21 C          66.5545   91.0099   14.3213 C.ar    1  UNL1        0.0474
     22 C          67.3515   91.9343   15.1933 C.ar    1  UNL1        0.1438
     23 F          68.7947   92.1999   14.8826 F       1  UNL1       -0.2040
     24 C          66.7053   92.5929   16.3759 C.ar    1  UNL1        0.0593
     25 C          65.2621   92.3272   16.6866 C.ar    1  UNL1        0.1438
     26 F          64.6159   92.9859   17.8692 F       1  UNL1       -0.2040
     27 C          64.4651   91.4029   15.8146 C.ar    1  UNL1        0.0474
     28 N          59.2823   92.0730    4.2014 N.3     1  UNL1       -0.2689
     29 C          57.9934   91.6491    4.8413 C.3     1  UNL1        0.0729
     30 C          57.9856   90.5350    5.8456 C.3     1  UNL1        0.0264
     31 C          59.2665   89.8447    6.2100 C.3     1  UNL1        0.0795
     32 C          60.5553   90.2686    5.5702 C.3     1  UNL1        0.0264
     33 C          60.5632   91.3827    4.5659 C.3     1  UNL1        0.0729
     34 C          59.2902   93.1871    3.1971 C.3     1  UNL1        0.0993
     35 N          58.9379   92.3400   -1.9174 N.pl3   1  UNL1       -0.3426
     36 C          59.7738   92.5674   -0.6928 C.ar    1  UNL1        0.1251
     37 C          59.1140   92.7636    0.6399 C.ar    1  UNL1        0.0310
     38 C          59.9500   92.9909    1.8644 C.ar    1  UNL1       -0.0018
     39 C          61.4458   93.0221    1.7562 C.ar    1  UNL1        0.0179
     40 C          62.1055   92.8260    0.4235 C.ar    1  UNL1        0.1000
     41 N          61.2696   92.5986   -0.8010 N.ar    1  UNL1       -0.2296
     42 H          57.9562   92.3196   -1.8465 H       1  UNL1        0.1437
     43 H          59.3710   92.2113   -2.7921 H       1  UNL1        0.1437
@<TRIPOS>BOND
     1    35    36    1
     2    36    37   ar
     3    37    38   ar
     4    38    34    1
     5    34    28    1
     6    28    29    1
     7    29    30    1
     8    30    31    1
     9    31     1    1
    10     1     2    2
    11     1     3   am
    12     3     4    1
    13     4     5    1
    14     5     6    1
    15     6     9    1
    16     9    10   ar
    17    10    11    2
    18    10    12   ar
    19    12    20    1
    20    20    21   ar
    21    21    22   ar
    22    22    23    1
    23    22    24   ar
    24    24    25   ar
    25    25    26    1
    26    25    27   ar
    27    12    13   ar
    28    13    14   ar
    29    14    15   ar
    30    15    16    1
    31    15    17   ar
    32    17    18   ar
    33    18    19   ar
    34     6     7    1
    35     7     8    1
    36    31    32    1
    37    32    33    1
    38    38    39   ar
    39    39    40   ar
    40    40    41   ar
    41    41    36   ar
    42    33    28    1
    43     8     3    1
    44    19     9   ar
    45    27    20   ar
    46    19    13   ar
    47    35    42    1
    48    35    43    1
@<TRIPOS>MOLECULE
*****
 43 48 0 0 0
SMALL
GASTEIGER

@<TRIPOS>ATOM
      1 C          62.5678   86.4231   16.6500 C.2     1  UNL1        0.2252
      2 O          61.7121   86.6127   17.8673 O.2     1  UNL1       -0.2749
      3 N          63.2676   87.5986   16.0348 N.am    1  UNL1       -0.2794
      4 C          63.1117   88.9636   16.6368 C.3     1  UNL1        0.0953
      5 C          63.8115   90.1391   16.0215 C.3     1  UNL1        0.0442
      6 C          64.6672   89.9495   14.8042 C.3     1  UNL1        0.0933
      7 C          64.8231   88.5846   14.2022 C.3     1  UNL1        0.0442
      8 C          64.1233   87.4091   14.8175 C.3     1  UNL1        0.0953
      9 N          65.3670   91.1250   14.1889 N.ar    1  UNL1       -0.2814
     10 C          65.1561   91.6481   12.7990 C.ar    1  UNL1        0.3354
     11 O          64.2085   91.0876   11.7803 O.2     1  UNL1       -0.2459
     12 N          66.0594   92.8301   12.6066 N.ar    1  UNL1       -0.2587
     13 C          66.8284   93.0376   13.8777 C.ar    1  UNL1        0.0863
     14 C          67.8631   94.0499   14.2709 C.ar    1  UNL1        0.0487
     15 C          68.4698   94.0083   15.6420 C.ar    1  UNL1        0.1417
     16 F          69.5045   95.0207   16.0354 F       1  UNL1       -0.2041
     17 C          68.0419   92.9545   16.6200 C.ar    1  UNL1        0.0312
     18 C          67.0073   91.9422   16.2267 C.ar    1  UNL1        0.0211
     19 C          66.4005   91.9837   14.8556 C.ar    1  UNL1        0.0801
     20 C          66.1735   93.6592   11.3618 C.ar    1  UNL1        0.0727
     21 C          65.2732   94.8426   11.1637 C.ar    1  UNL1        0.0474
     22 C          65.3873   95.6717    9.9188 C.ar    1  UNL1        0.1438
     23 F          64.4870   96.8550    9.7208 F       1  UNL1       -0.2040
     24 C          66.4017   95.3175    8.8722 C.ar    1  UNL1        0.0593
     25 C          67.3019   94.1342    9.0703 C.ar    1  UNL1        0.1438
     26 F          68.3163   93.7800    8.0236 F       1  UNL1       -0.2040
     27 C          67.1878   93.3051   10.3151 C.ar    1  UNL1        0.0474
     28 N          63.0355   82.3281   14.8439 N.3     1  UNL1       -0.2689
     29 C          61.6891   82.9894   14.8649 C.3     1  UNL1        0.0729
     30 C          61.5332   84.3543   15.4669 C.3     1  UNL1        0.0264
     31 C          62.7237   85.0581   16.0480 C.3     1  UNL1        0.0795
     32 C          64.0699   84.3970   16.0271 C.3     1  UNL1        0.0264
     33 C          64.2258   83.0320   15.4250 C.3     1  UNL1        0.0729
     34 C          63.1913   80.9631   14.2419 C.3     1  UNL1        0.0993
     35 N          62.4109   77.9690   10.0675 N.pl3   1  UNL1       -0.3426
     36 C          62.7749   79.2960   10.6647 C.ar    1  UNL1        0.1251
     37 C          62.8012   79.4661   12.1547 C.ar    1  UNL1        0.0310
     38 C          63.1651   80.7931   12.7518 C.ar    1  UNL1       -0.0018
     39 C          63.5029   81.9500   11.8588 C.ar    1  UNL1        0.0179
     40 C          63.4767   81.7799   10.3688 C.ar    1  UNL1        0.1000
     41 N          63.1127   80.4529    9.7717 N.ar    1  UNL1       -0.2296
     42 H          62.1892   77.2096   10.6535 H       1  UNL1        0.1437
     43 H          62.3937   77.8574    9.0895 H       1  UNL1        0.1437
@<TRIPOS>BOND
     1    35    36    1
     2    36    37   ar
     3    37    38   ar
     4    38    34    1
     5    34    28    1
     6    28    29    1
     7    29    30    1
     8    30    31    1
     9    31     1    1
    10     1     2    2
    11     1     3   am
    12     3     4    1
    13     4     5    1
    14     5     6    1
    15     6     9    1
    16     9    10   ar
    17    10    11    2
    18    10    12   ar
    19    12    20    1
    20    20    21   ar
    21    21    22   ar
    22    22    23    1
    23    22    24   ar
    24    24    25   ar
    25    25    26    1
    26    25    27   ar
    27    12    13   ar
    28    13    14   ar
    29    14    15   ar
    30    15    16    1
    31    15    17   ar
    32    17    18   ar
    33    18    19   ar
    34     6     7    1
    35     7     8    1
    36    31    32    1
    37    32    33    1
    38    38    39   ar
    39    39    40   ar
    40    40    41   ar
    41    41    36   ar
    42    33    28    1
    43     8     3    1
    44    19     9   ar
    45    27    20   ar
    46    19    13   ar
    47    35    42    1
    48    35    43    1
@<TRIPOS>MOLECULE
*****
 43 48 0 0 0
SMALL
GASTEIGER

@<TRIPOS>ATOM
      1 C          62.5881   86.5176   16.7494 C.2     1  UNL1        0.2252
      2 O          61.7841   86.7029   18.0020 O.2     1  UNL1       -0.2749
      3 N          63.2799   87.6913   16.1218 N.am    1  UNL1       -0.2794
      4 C          63.1676   89.0502   16.7469 C.3     1  UNL1        0.0953
      5 C          63.8593   90.2239   16.1193 C.3     1  UNL1        0.0442
      6 C          64.6634   90.0387   14.8666 C.3     1  UNL1        0.0933
      7 C          64.7757   88.6798   14.2416 C.3     1  UNL1        0.0442
      8 C          64.0839   87.5061   14.8692 C.3     1  UNL1        0.0953
      9 N          65.3552   91.2124   14.2390 N.ar    1  UNL1       -0.2814
     10 C          65.1467   91.7146   12.8410 C.ar    1  UNL1        0.3354
     11 O          64.2098   91.1313   11.8251 O.2     1  UNL1       -0.2459
     12 N          66.0396   92.9026   12.6373 N.ar    1  UNL1       -0.2587
     13 C          66.7999   93.1346   13.9093 C.ar    1  UNL1        0.0863
     14 C          67.8227   94.1621   14.2941 C.ar    1  UNL1        0.0487
     15 C          68.4226   94.1450   15.6688 C.ar    1  UNL1        0.1417
     16 F          69.4454   95.1725   16.0536 F       1  UNL1       -0.2041
     17 C          67.9996   93.1004   16.6587 C.ar    1  UNL1        0.0312
     18 C          66.9768   92.0729   16.2739 C.ar    1  UNL1        0.0211
     19 C          66.3769   92.0900   14.8992 C.ar    1  UNL1        0.0801
     20 C          66.1523   93.7158   11.3819 C.ar    1  UNL1        0.0727
     21 C          67.1899   93.3702   10.3551 C.ar    1  UNL1        0.0474
     22 C          67.3027   94.1834    9.0997 C.ar    1  UNL1        0.1438
     23 F          68.3401   93.8379    8.0730 F       1  UNL1       -0.2040
     24 C          66.3780   95.3422    8.8711 C.ar    1  UNL1        0.0593
     25 C          65.3405   95.6877    9.8978 C.ar    1  UNL1        0.1438
     26 F          64.4158   96.8464    9.6692 F       1  UNL1       -0.2040
     27 C          65.2277   94.8745   11.1532 C.ar    1  UNL1        0.0474
     28 N          62.9251   82.4408   14.8742 N.3     1  UNL1       -0.2689
     29 C          61.5909   83.1220   14.9534 C.3     1  UNL1        0.0729
     30 C          61.4786   84.4810   15.5785 C.3     1  UNL1        0.0264
     31 C          62.7004   85.1587   16.1243 C.3     1  UNL1        0.0795
     32 C          64.0345   84.4775   16.0451 C.3     1  UNL1        0.0264
     33 C          64.1468   83.1186   15.4200 C.3     1  UNL1        0.0729
     34 C          63.0374   81.0819   14.2491 C.3     1  UNL1        0.0993
     35 N          64.1846   83.1010    9.6008 N.pl3   1  UNL1       -0.3426
     36 C          63.6879   81.9562   10.4331 C.ar    1  UNL1        0.1251
     37 C          63.6110   82.0914   11.9250 C.ar    1  UNL1        0.0310
     38 C          63.1143   80.9466   12.7573 C.ar    1  UNL1       -0.0018
     39 C          62.6945   79.6665   12.0976 C.ar    1  UNL1        0.0179
     40 C          62.7714   79.5312   10.6057 C.ar    1  UNL1        0.1000
     41 N          63.2681   80.6761    9.7735 N.ar    1  UNL1       -0.2296
     42 H          64.4602   83.9412   10.0337 H       1  UNL1        0.1437
     43 H          64.2351   83.0121    8.6216 H       1  UNL1        0.1437
@<TRIPOS>BOND
     1    35    36    1
     2    36    37   ar
     3    37    38   ar
     4    38    34    1
     5    34    28    1
     6    28    29    1
     7    29    30    1
     8    30    31    1
     9    31     1    1
    10     1     2    2
    11     1     3   am
    12     3     4    1
    13     4     5    1
    14     5     6    1
    15     6     9    1
    16     9    10   ar
    17    10    11    2
    18    10    12   ar
    19    12    20    1
    20    20    21   ar
    21    21    22   ar
    22    22    23    1
    23    22    24   ar
    24    24    25   ar
    25    25    26    1
    26    25    27   ar
    27    12    13   ar
    28    13    14   ar
    29    14    15   ar
    30    15    16    1
    31    15    17   ar
    32    17    18   ar
    33    18    19   ar
    34     6     7    1
    35     7     8    1
    36    31    32    1
    37    32    33    1
    38    38    39   ar
    39    39    40   ar
    40    40    41   ar
    41    41    36   ar
    42    33    28    1
    43     8     3    1
    44    19     9   ar
    45    27    20   ar
    46    19    13   ar
    47    35    42    1
    48    35    43    1
@<TRIPOS>MOLECULE
*****
 43 48 0 0 0
SMALL
GASTEIGER

@<TRIPOS>ATOM
      1 C          58.7132   90.5394    5.9373 C.2     1  UNL1        0.2252
      2 O          57.2552   90.8546    6.0953 O.2     1  UNL1       -0.2749
      3 N          59.4983   91.1615    4.8209 N.am    1  UNL1       -0.2794
      4 C          58.8254   92.0989    3.8624 C.3     1  UNL1        0.0953
      5 C          59.6105   92.7211    2.7459 C.3     1  UNL1        0.0442
      6 C          61.0686   92.4059    2.5879 C.3     1  UNL1        0.0933
      7 C          61.7414   91.4686    3.5464 C.3     1  UNL1        0.0442
      8 C          60.9562   90.8464    4.6629 C.3     1  UNL1        0.0953
      9 N          61.8537   93.0280    1.4715 N.ar    1  UNL1       -0.2814
     10 C          61.6359   92.7977    0.0054 C.ar    1  UNL1        0.3354
     11 O          60.5948   91.9047   -0.6017 O.2     1  UNL1       -0.2459
     12 N          62.6421   93.6171   -0.7470 N.ar    1  UNL1       -0.2587
     13 C          63.4817   94.3539    0.2540 C.ar    1  UNL1        0.0863
     14 C          64.6270   95.3093    0.0942 C.ar    1  UNL1        0.0487
     15 C          65.2850   95.9006    1.3055 C.ar    1  UNL1        0.1417
     16 F          66.4303   96.8560    1.1457 F       1  UNL1       -0.2041
     17 C          64.7978   95.5365    2.6766 C.ar    1  UNL1        0.0312
     18 C          63.6525   94.5811    2.8365 C.ar    1  UNL1        0.0211
     19 C          62.9945   93.9898    1.6252 C.ar    1  UNL1        0.0801
     20 C          62.7838   93.6874   -2.2387 C.ar    1  UNL1        0.0727
     21 C          63.8579   92.8992   -2.9280 C.ar    1  UNL1        0.0474
     22 C          63.9996   92.9695   -4.4197 C.ar    1  UNL1        0.1438
     23 F          65.0737   92.1814   -5.1089 F       1  UNL1       -0.2040
     24 C          63.0672   93.8279   -5.2220 C.ar    1  UNL1        0.0593
     25 C          61.9931   94.6160   -4.5327 C.ar    1  UNL1        0.1438
     26 F          61.0607   95.4745   -5.3350 F       1  UNL1       -0.2040
     27 C          61.8514   94.5457   -3.0410 C.ar    1  UNL1        0.0474
     28 N          60.7317   87.7273    8.8127 N.3     1  UNL1       -0.2689
     29 C          60.0174   87.1852    7.6102 C.3     1  UNL1        0.0729
     30 C          59.3446   88.1225    6.6517 C.3     1  UNL1        0.0264
     31 C          59.3860   89.6020    6.8958 C.3     1  UNL1        0.0795
     32 C          60.1003   90.1441    8.0983 C.3     1  UNL1        0.0264
     33 C          60.7731   89.2068    9.0567 C.3     1  UNL1        0.0729
     34 C          61.4045   86.7900    9.7712 C.3     1  UNL1        0.0993
     35 N          63.1975   90.8440   12.4824 N.pl3   1  UNL1       -0.3426
     36 C          63.0562   89.3614   12.3028 C.ar    1  UNL1        0.1251
     37 C          62.3010   88.8169   11.1267 C.ar    1  UNL1        0.0310
     38 C          62.1597   87.3344   10.9473 C.ar    1  UNL1       -0.0018
     39 C          62.7735   86.3964   11.9439 C.ar    1  UNL1        0.0179
     40 C          63.5287   86.9409   13.1200 C.ar    1  UNL1        0.1000
     41 N          63.6700   88.4234   13.2995 N.ar    1  UNL1       -0.2296
     42 H          62.7946   91.4596   11.8283 H       1  UNL1        0.1437
     43 H          63.6932   91.2013   13.2543 H       1  UNL1        0.1437
@<TRIPOS>BOND
     1    35    36    1
     2    36    37   ar
     3    37    38   ar
     4    38    34    1
     5    34    28    1
     6    28    29    1
     7    29    30    1
     8    30    31    1
     9    31     1    1
    10     1     2    2
    11     1     3   am
    12     3     4    1
    13     4     5    1
    14     5     6    1
    15     6     9    1
    16     9    10   ar
    17    10    11    2
    18    10    12   ar
    19    12    20    1
    20    20    21   ar
    21    21    22   ar
    22    22    23    1
    23    22    24   ar
    24    24    25   ar
    25    25    26    1
    26    25    27   ar
    27    12    13   ar
    28    13    14   ar
    29    14    15   ar
    30    15    16    1
    31    15    17   ar
    32    17    18   ar
    33    18    19   ar
    34     6     7    1
    35     7     8    1
    36    31    32    1
    37    32    33    1
    38    38    39   ar
    39    39    40   ar
    40    40    41   ar
    41    41    36   ar
    42    33    28    1
    43     8     3    1
    44    19     9   ar
    45    27    20   ar
    46    19    13   ar
    47    35    42    1
    48    35    43    1
@<TRIPOS>MOLECULE
*****
 43 48 0 0 0
SMALL
GASTEIGER

@<TRIPOS>ATOM
      1 C          58.5694   90.6104    5.9224 C.2     1  UNL1        0.2252
      2 O          57.0811   90.7957    5.9487 O.2     1  UNL1       -0.2749
      3 N          59.3799   91.2077    4.8106 N.am    1  UNL1       -0.2794
      4 C          58.7022   91.9903    3.7251 C.3     1  UNL1        0.0953
      5 C          59.5128   92.5876    2.6133 C.3     1  UNL1        0.0442
      6 C          61.0011   92.4023    2.5869 C.3     1  UNL1        0.0933
      7 C          61.6788   91.6197    3.6723 C.3     1  UNL1        0.0442
      8 C          60.8682   91.0224    4.7842 C.3     1  UNL1        0.0953
      9 N          61.8117   92.9996    1.4750 N.ar    1  UNL1       -0.2814
     10 C          61.6346   92.7279    0.0105 C.ar    1  UNL1        0.3354
     11 O          60.6159   91.8112   -0.5993 O.2     1  UNL1       -0.2459
     12 N          62.6551   93.5339   -0.7371 N.ar    1  UNL1       -0.2587
     13 C          63.4629   94.3037    0.2654 C.ar    1  UNL1        0.0863
     14 C          64.6058   95.2626    0.1099 C.ar    1  UNL1        0.0487
     15 C          65.2274   95.8914    1.3216 C.ar    1  UNL1        0.1417
     16 F          66.3703   96.8504    1.1661 F       1  UNL1       -0.2041
     17 C          64.7061   95.5612    2.6888 C.ar    1  UNL1        0.0312
     18 C          63.5632   94.6022    2.8443 C.ar    1  UNL1        0.0211
     19 C          62.9417   93.9735    1.6325 C.ar    1  UNL1        0.0801
     20 C          62.8361   93.5647   -2.2258 C.ar    1  UNL1        0.0727
     21 C          63.9699   92.8140   -2.8592 C.ar    1  UNL1        0.0474
     22 C          64.1509   92.8448   -4.3480 C.ar    1  UNL1        0.1438
     23 F          65.2847   92.0942   -4.9812 F       1  UNL1       -0.2040
     24 C          63.1982   93.6263   -5.2033 C.ar    1  UNL1        0.0593
     25 C          62.0645   94.3769   -4.5699 C.ar    1  UNL1        0.1438
     26 F          61.1117   95.1583   -5.4253 F       1  UNL1       -0.2040
     27 C          61.8835   94.3461   -3.0812 C.ar    1  UNL1        0.0474
     28 N          60.6025   88.2626    9.1788 N.3     1  UNL1       -0.2689
     29 C          60.8174   89.7436    9.0760 C.3     1  UNL1        0.0729
     30 C          60.1397   90.5262    7.9905 C.3     1  UNL1        0.0264
     31 C          59.2471   89.8278    7.0079 C.3     1  UNL1        0.0795
     32 C          59.0321   88.3468    7.1108 C.3     1  UNL1        0.0264
     33 C          59.7098   87.5642    8.1962 C.3     1  UNL1        0.0729
     34 C          61.2802   87.4800   10.2643 C.3     1  UNL1        0.0993
     35 N          63.6099   83.0777   11.7449 N.pl3   1  UNL1       -0.3426
     36 C          63.2246   84.0436   10.6638 C.ar    1  UNL1        0.1251
     37 C          62.4450   85.2789   11.0046 C.ar    1  UNL1        0.0310
     38 C          62.0598   86.2447    9.9235 C.ar    1  UNL1       -0.0018
     39 C          62.4541   85.9752    8.5015 C.ar    1  UNL1        0.0179
     40 C          63.2337   84.7398    8.1608 C.ar    1  UNL1        0.1000
     41 N          63.6189   83.7740    9.2419 N.ar    1  UNL1       -0.2296
     42 H          63.3511   83.2546   12.6782 H       1  UNL1        0.1437
     43 H          64.1216   82.2669   11.5212 H       1  UNL1        0.1437
@<TRIPOS>BOND
     1    35    36    1
     2    36    37   ar
     3    37    38   ar
     4    38    34    1
     5    34    28    1
     6    28    29    1
     7    29    30    1
     8    30    31    1
     9    31     1    1
    10     1     2    2
    11     1     3   am
    12     3     4    1
    13     4     5    1
    14     5     6    1
    15     6     9    1
    16     9    10   ar
    17    10    11    2
    18    10    12   ar
    19    12    20    1
    20    20    21   ar
    21    21    22   ar
    22    22    23    1
    23    22    24   ar
    24    24    25   ar
    25    25    26    1
    26    25    27   ar
    27    12    13   ar
    28    13    14   ar
    29    14    15   ar
    30    15    16    1
    31    15    17   ar
    32    17    18   ar
    33    18    19   ar
    34     6     7    1
    35     7     8    1
    36    31    32    1
    37    32    33    1
    38    38    39   ar
    39    39    40   ar
    40    40    41   ar
    41    41    36   ar
    42    33    28    1
    43     8     3    1
    44    19     9   ar
    45    27    20   ar
    46    19    13   ar
    47    35    42    1
    48    35    43    1
