@<TRIPOS>MOLECULE
*****
 41 46 0 0 0
SMALL
GASTEIGER

@<TRIPOS>ATOM
      1 C          61.8459   89.8592   11.2197 C.ar    1  UNL1        0.0568
      2 C          60.6978   90.6286   10.6367 C.ar    1  UNL1        0.1236
      3 N          59.9002   89.6919    9.7786 N.ar    1  UNL1       -0.1610
      4 N          60.5553   88.3435    9.8313 N.ar    1  UNL1       -0.1986
      5 C          60.2121   87.0349    9.1834 C.ar    1  UNL1        0.1363
      6 C          61.0715   85.8297    9.4262 C.ar    1  UNL1        0.0922
      7 C          62.2740   85.9330   10.3168 C.ar    1  UNL1        0.2338
      8 N          62.6171   87.2417   10.9648 N.ar    1  UNL1       -0.1920
      9 C          61.7578   88.4469   10.7220 C.ar    1  UNL1        0.1697
     10 C          65.8064   93.1053   12.1010 C.3     1  UNL1        0.0312
     11 C          64.8778   92.0291   12.5797 C.ar    1  UNL1       -0.0175
     12 C          63.8261   91.4822   11.6604 C.ar    1  UNL1       -0.0040
     13 C          62.8974   90.4060   12.1391 C.ar    1  UNL1        0.0042
     14 C          63.0203   89.8765   13.5371 C.ar    1  UNL1        0.0003
     15 C          64.0719   90.4234   14.4565 C.ar    1  UNL1        0.0042
     16 C          65.0006   91.4996   13.9778 C.ar    1  UNL1        0.0494
     17 C          66.0522   92.0464   14.8972 C.2     1  UNL1        0.2455
     18 O          65.6722   92.5402   16.2616 O.2     1  UNL1       -0.2702
     19 N          67.4836   92.0995   14.4520 N.am    1  UNL1       -0.3025
     20 H          67.7330   91.7754   13.5565 H       1  UNL1        0.1497
     21 C          68.5352   92.6463   15.3714 C.3     1  UNL1        0.0720
     22 C          69.6241   92.4226   16.3784 C.3     1  UNL1        0.0213
     23 C          69.2675   93.8171   15.9568 C.3     1  UNL1        0.0213
     24 N          59.0096   86.9315    8.2927 N.pl3   1  UNL1       -0.3167
     25 H          58.4678   86.1096    8.2907 H       1  UNL1        0.1482
     26 C          58.6327   88.0806    7.4051 C.3     1  UNL1        0.1057
     27 C          59.7014   88.9293    6.7826 C.3     1  UNL1        0.0937
     28 N          59.3245   90.0806    5.8981 N.3     1  UNL1       -0.2670
     29 C          60.3851   90.8229    5.1405 C.3     1  UNL1        0.1047
     30 C          60.0083   91.9743    4.2560 C.3     1  UNL1        0.1595
     31 O          58.5707   92.3834    4.1291 O.3     1  UNL1       -0.3508
     32 C          57.5100   91.6410    4.8868 C.3     1  UNL1        0.1595
     33 C          57.8869   90.4897    5.7713 C.3     1  UNL1        0.1047
     34 O          63.1334   84.7279   10.5596 O.3     1  UNL1       -0.4359
     35 C          62.8779   83.8521   11.7502 C.ar    1  UNL1        0.1494
     36 C          62.7492   84.4607   13.1151 C.ar    1  UNL1        0.0377
     37 C          62.4937   83.5849   14.3058 C.ar    1  UNL1        0.0054
     38 C          62.3670   82.1005   14.1316 C.ar    1  UNL1        0.0298
     39 C          62.4958   81.4918   12.7667 C.ar    1  UNL1        0.1432
     40 F          62.3690   80.0073   12.5924 F       1  UNL1       -0.2041
     41 C          62.7512   82.3676   11.5760 C.ar    1  UNL1        0.0672
@<TRIPOS>BOND
     1    10    11    1
     2    11    12   ar
     3    12    13   ar
     4    13     1    1
     5     1     2   ar
     6     2     3   ar
     7     3     4   ar
     8     4     5   ar
     9     5    24    1
    10    24    26    1
    11    26    27    1
    12    27    28    1
    13    28    29    1
    14    29    30    1
    15    30    31    1
    16    31    32    1
    17    32    33    1
    18     5     6   ar
    19     6     7   ar
    20     7    34    1
    21    34    35    1
    22    35    36   ar
    23    36    37   ar
    24    37    38   ar
    25    38    39   ar
    26    39    40    1
    27    39    41   ar
    28     7     8   ar
    29     8     9   ar
    30    13    14   ar
    31    14    15   ar
    32    15    16   ar
    33    16    17    1
    34    17    18    2
    35    17    19   am
    36    19    21    1
    37    21    22    1
    38    22    23    1
    39    16    11   ar
    40    23    21    1
    41     9     1   ar
    42     9     4   ar
    43    33    28    1
    44    41    35   ar
    45    24    25    1
    46    19    20    1
@<TRIPOS>MOLECULE
*****
 41 46 0 0 0
SMALL
GASTEIGER

@<TRIPOS>ATOM
      1 C          62.3559   86.3051   11.1582 C.ar    1  UNL1        0.0568
      2 C          62.5771   84.8215   11.1586 C.ar    1  UNL1        0.1236
      3 N          63.4089   84.4772   12.3584 N.ar    1  UNL1       -0.1610
      4 N          63.7018   85.7480   13.0996 N.ar    1  UNL1       -0.1986
      5 C          64.4769   86.0224   14.3540 C.ar    1  UNL1        0.1363
      6 C          64.6014   87.4266   14.8668 C.ar    1  UNL1        0.0922
      7 C          63.9506   88.5563   14.1251 C.ar    1  UNL1        0.2338
      8 N          63.1753   88.2818   12.8705 N.ar    1  UNL1       -0.1920
      9 C          63.0510   86.8777   12.3578 C.ar    1  UNL1        0.1697
     10 C          59.0016   86.4164    7.1914 C.3     1  UNL1        0.0312
     11 C          59.8993   87.1357    8.1540 C.ar    1  UNL1       -0.0175
     12 C          60.6787   86.3608    9.1748 C.ar    1  UNL1       -0.0040
     13 C          61.5765   87.0800   10.1375 C.ar    1  UNL1        0.0042
     14 C          61.6948   88.5742   10.0794 C.ar    1  UNL1        0.0003
     15 C          60.9153   89.3491    9.0586 C.ar    1  UNL1        0.0042
     16 C          60.0176   88.6299    8.0959 C.ar    1  UNL1        0.0494
     17 C          59.2381   89.4049    7.0752 C.2     1  UNL1        0.2455
     18 O          57.7768   89.1288    6.8794 O.2     1  UNL1       -0.2702
     19 N          59.9200   90.4559    6.2503 N.am    1  UNL1       -0.3025
     20 H          60.8791   90.6371    6.3789 H       1  UNL1        0.1497
     21 C          59.1405   91.2309    5.2296 C.3     1  UNL1        0.0720
     22 C          57.8248   91.6707    4.6592 C.3     1  UNL1        0.0213
     23 C          59.1063   92.1334    4.0319 C.3     1  UNL1        0.0213
     24 N          65.1277   84.8927   15.0958 N.pl3   1  UNL1       -0.3167
     25 H          66.1066   84.7895   15.0753 H       1  UNL1        0.1482
     26 C          64.2871   83.9201   15.8688 C.3     1  UNL1        0.1057
     27 C          62.9002   83.5910   15.4017 C.3     1  UNL1        0.0937
     28 N          62.6476   82.3279   14.6330 N.3     1  UNL1       -0.2670
     29 C          61.2623   81.7571   14.5627 C.3     1  UNL1        0.1047
     30 C          61.0098   80.4940   13.7940 C.3     1  UNL1        0.1595
     31 O          62.1425   79.8018   13.0955 O.3     1  UNL1       -0.3508
     32 C          63.5279   80.3728   13.1659 C.3     1  UNL1        0.1595
     33 C          63.7804   81.6358   13.9346 C.3     1  UNL1        0.1047
     34 O          64.0749   89.9604   14.6378 O.3     1  UNL1       -0.4359
     35 C          64.9637   90.9408   13.9315 C.ar    1  UNL1        0.1494
     36 C          66.3162   91.2664   14.4925 C.ar    1  UNL1        0.0377
     37 C          67.2050   92.2467   13.7862 C.ar    1  UNL1        0.0054
     38 C          66.7414   92.9016   12.5189 C.ar    1  UNL1        0.0298
     39 C          65.3889   92.5760   11.9579 C.ar    1  UNL1        0.1432
     40 F          64.9252   93.2309   10.6905 F       1  UNL1       -0.2041
     41 C          64.5001   91.5956   12.6641 C.ar    1  UNL1        0.0672
@<TRIPOS>BOND
     1    10    11    1
     2    11    12   ar
     3    12    13   ar
     4    13     1    1
     5     1     2   ar
     6     2     3   ar
     7     3     4   ar
     8     4     5   ar
     9     5    24    1
    10    24    26    1
    11    26    27    1
    12    27    28    1
    13    28    29    1
    14    29    30    1
    15    30    31    1
    16    31    32    1
    17    32    33    1
    18     5     6   ar
    19     6     7   ar
    20     7    34    1
    21    34    35    1
    22    35    36   ar
    23    36    37   ar
    24    37    38   ar
    25    38    39   ar
    26    39    40    1
    27    39    41   ar
    28     7     8   ar
    29     8     9   ar
    30    13    14   ar
    31    14    15   ar
    32    15    16   ar
    33    16    17    1
    34    17    18    2
    35    17    19   am
    36    19    21    1
    37    21    22    1
    38    22    23    1
    39    16    11   ar
    40    23    21    1
    41     9     1   ar
    42     9     4   ar
    43    33    28    1
    44    41    35   ar
    45    24    25    1
    46    19    20    1
@<TRIPOS>MOLECULE
*****
 41 46 0 0 0
SMALL
GASTEIGER

@<TRIPOS>ATOM
      1 C          64.0790   88.8796   14.1839 C.ar    1  UNL1        0.0568
      2 C          64.0769   88.5427   15.6456 C.ar    1  UNL1        0.1236
      3 N          63.5060   87.1646   15.8028 N.ar    1  UNL1       -0.1610
      4 N          63.1552   86.6497   14.4383 N.ar    1  UNL1       -0.1986
      5 C          62.5592   85.3526   13.9776 C.ar    1  UNL1        0.1363
      6 C          62.3172   85.1155   12.5163 C.ar    1  UNL1        0.0922
      7 C          62.6714   86.1754   11.5157 C.ar    1  UNL1        0.2338
      8 N          63.2675   87.4725   11.9765 N.ar    1  UNL1       -0.1920
      9 C          63.5094   87.7096   13.4377 C.ar    1  UNL1        0.1697
     10 C          67.3256   92.9364   14.2314 C.3     1  UNL1        0.0312
     11 C          66.1887   92.1898   13.5990 C.ar    1  UNL1       -0.0175
     12 C          65.7023   90.9080   14.2076 C.ar    1  UNL1       -0.0040
     13 C          64.5654   90.1614   13.5752 C.ar    1  UNL1        0.0042
     14 C          63.9148   90.6965   12.3341 C.ar    1  UNL1        0.0003
     15 C          64.4012   91.9783   11.7255 C.ar    1  UNL1        0.0042
     16 C          65.5381   92.7250   12.3579 C.ar    1  UNL1        0.0494
     17 C          66.0245   94.0068   11.7492 C.2     1  UNL1        0.2455
     18 O          66.1168   95.2473   12.5873 O.2     1  UNL1       -0.2702
     19 N          66.4184   94.0479   10.3024 N.am    1  UNL1       -0.3025
     20 H          66.3578   93.2337    9.7524 H       1  UNL1        0.1497
     21 C          66.9048   95.3297    9.6937 C.3     1  UNL1        0.0720
     22 C          67.2391   96.7859    9.8261 C.3     1  UNL1        0.0213
     23 C          67.4128   96.0936    8.5069 C.3     1  UNL1        0.0213
     24 N          62.2050   84.2927   14.9781 N.pl3   1  UNL1       -0.3167
     25 H          61.3179   84.2955   15.4051 H       1  UNL1        0.1482
     26 C          63.2025   83.2284   15.3281 C.3     1  UNL1        0.1057
     27 C          64.2912   82.8732   14.3593 C.3     1  UNL1        0.0937
     28 N          63.9471   82.2433   13.0422 N.3     1  UNL1       -0.2670
     29 C          64.4271   82.8661   11.7649 C.3     1  UNL1        0.1047
     30 C          64.0830   82.2363   10.4477 C.3     1  UNL1        0.1595
     31 O          63.2588   80.9836   10.4079 O.3     1  UNL1       -0.3508
     32 C          62.7787   80.3608   11.6854 C.3     1  UNL1        0.1595
     33 C          63.1229   80.9906   13.0025 C.3     1  UNL1        0.1047
     34 O          62.4294   85.9383   10.0545 O.3     1  UNL1       -0.4359
     35 C          61.3561   86.7031    9.3382 C.ar    1  UNL1        0.1494
     36 C          60.5010   86.0159    8.3153 C.ar    1  UNL1        0.0377
     37 C          59.4277   86.7807    7.5990 C.ar    1  UNL1        0.0054
     38 C          59.2095   88.2327    7.9056 C.ar    1  UNL1        0.0298
     39 C          60.0647   88.9199    8.9286 C.ar    1  UNL1        0.1432
     40 F          59.8465   90.3720    9.2352 F       1  UNL1       -0.2041
     41 C          61.1380   88.1551    9.6449 C.ar    1  UNL1        0.0672
@<TRIPOS>BOND
     1    10    11    1
     2    11    12   ar
     3    12    13   ar
     4    13     1    1
     5     1     2   ar
     6     2     3   ar
     7     3     4   ar
     8     4     5   ar
     9     5    24    1
    10    24    26    1
    11    26    27    1
    12    27    28    1
    13    28    29    1
    14    29    30    1
    15    30    31    1
    16    31    32    1
    17    32    33    1
    18     5     6   ar
    19     6     7   ar
    20     7    34    1
    21    34    35    1
    22    35    36   ar
    23    36    37   ar
    24    37    38   ar
    25    38    39   ar
    26    39    40    1
    27    39    41   ar
    28     7     8   ar
    29     8     9   ar
    30    13    14   ar
    31    14    15   ar
    32    15    16   ar
    33    16    17    1
    34    17    18    2
    35    17    19   am
    36    19    21    1
    37    21    22    1
    38    22    23    1
    39    16    11   ar
    40    23    21    1
    41     9     1   ar
    42     9     4   ar
    43    33    28    1
    44    41    35   ar
    45    24    25    1
    46    19    20    1
@<TRIPOS>MOLECULE
*****
 41 46 0 0 0
SMALL
GASTEIGER

@<TRIPOS>ATOM
      1 C          63.9606   87.6319   14.0323 C.ar    1  UNL1        0.0568
      2 C          64.9595   88.2633   14.9562 C.ar    1  UNL1        0.1236
      3 N          65.1544   89.6867   14.5252 N.ar    1  UNL1       -0.1610
      4 N          64.2760   89.9351   13.3349 N.ar    1  UNL1       -0.1986
      5 C          64.0526   91.1536   12.4892 C.ar    1  UNL1        0.1363
      6 C          63.0914   91.1022   11.3387 C.ar    1  UNL1        0.0922
      7 C          62.3536   89.8322   11.0340 C.ar    1  UNL1        0.2338
      8 N          62.5770   88.6137   11.8799 N.ar    1  UNL1       -0.1920
      9 C          63.5382   88.6652   13.0303 C.ar    1  UNL1        0.1697
     10 C          62.7288   83.1801   11.6523 C.3     1  UNL1        0.0312
     11 C          62.8543   83.9899   12.9086 C.ar    1  UNL1       -0.0175
     12 C          63.3447   85.4060   12.8423 C.ar    1  UNL1       -0.0040
     13 C          63.4702   86.2159   14.0986 C.ar    1  UNL1        0.0042
     14 C          63.1054   85.6097   15.4213 C.ar    1  UNL1        0.0003
     15 C          62.6150   84.1937   15.4876 C.ar    1  UNL1        0.0042
     16 C          62.4895   83.3838   14.2313 C.ar    1  UNL1        0.0494
     17 C          61.9991   81.9678   14.2977 C.2     1  UNL1        0.2455
     18 O          62.9735   80.8454   14.4994 O.2     1  UNL1       -0.2702
     19 N          60.5344   81.6742   14.1624 N.am    1  UNL1       -0.3025
     20 H          59.8948   82.4109   14.0300 H       1  UNL1        0.1497
     21 C          60.0440   80.2581   14.2288 C.3     1  UNL1        0.0720
     22 C          60.2814   78.7905   14.0299 C.3     1  UNL1        0.0213
     23 C          58.9571   79.2732   14.5426 C.3     1  UNL1        0.0213
     24 N          64.7904   92.4236   12.7938 N.pl3   1  UNL1       -0.3167
     25 H          64.2984   93.2142   13.1132 H       1  UNL1        0.1482
     26 C          66.2780   92.4889   12.6118 C.3     1  UNL1        0.1057
     27 C          66.8600   92.6230   11.2359 C.3     1  UNL1        0.0937
     28 N          66.9295   93.9696   10.5789 N.3     1  UNL1       -0.2670
     29 C          67.5103   94.1035    9.2024 C.3     1  UNL1        0.1047
     30 C          67.5798   95.4502    8.5454 C.3     1  UNL1        0.1595
     31 O          67.0685   96.6630    9.2648 O.3     1  UNL1       -0.3508
     32 C          66.4876   96.5291   10.6414 C.3     1  UNL1        0.1595
     33 C          66.4181   95.1824   11.2983 C.3     1  UNL1        0.1047
     34 O          61.3925   89.7807    9.8836 O.3     1  UNL1       -0.4359
     35 C          61.0908   88.4716    9.2164 C.ar    1  UNL1        0.1494
     36 C          59.8051   88.2916    8.4650 C.ar    1  UNL1        0.0377
     37 C          59.5034   86.9825    7.7977 C.ar    1  UNL1        0.0054
     38 C          60.4874   85.8534    7.8818 C.ar    1  UNL1        0.0298
     39 C          61.7730   86.0335    8.6332 C.ar    1  UNL1        0.1432
     40 F          62.7570   84.9044    8.7174 F       1  UNL1       -0.2041
     41 C          62.0747   87.3426    9.3005 C.ar    1  UNL1        0.0672
@<TRIPOS>BOND
     1    10    11    1
     2    11    12   ar
     3    12    13   ar
     4    13     1    1
     5     1     2   ar
     6     2     3   ar
     7     3     4   ar
     8     4     5   ar
     9     5    24    1
    10    24    26    1
    11    26    27    1
    12    27    28    1
    13    28    29    1
    14    29    30    1
    15    30    31    1
    16    31    32    1
    17    32    33    1
    18     5     6   ar
    19     6     7   ar
    20     7    34    1
    21    34    35    1
    22    35    36   ar
    23    36    37   ar
    24    37    38   ar
    25    38    39   ar
    26    39    40    1
    27    39    41   ar
    28     7     8   ar
    29     8     9   ar
    30    13    14   ar
    31    14    15   ar
    32    15    16   ar
    33    16    17    1
    34    17    18    2
    35    17    19   am
    36    19    21    1
    37    21    22    1
    38    22    23    1
    39    16    11   ar
    40    23    21    1
    41     9     1   ar
    42     9     4   ar
    43    33    28    1
    44    41    35   ar
    45    24    25    1
    46    19    20    1
@<TRIPOS>MOLECULE
*****
 41 46 0 0 0
SMALL
GASTEIGER

@<TRIPOS>ATOM
      1 C          63.8720   86.7527   13.7557 C.ar    1  UNL1        0.0568
      2 C          64.6399   87.2348   14.9506 C.ar    1  UNL1        0.1236
      3 N          64.6685   88.7339   14.9091 N.ar    1  UNL1       -0.1610
      4 N          63.9183   89.1783   13.6886 N.ar    1  UNL1       -0.1986
      5 C          63.6199   90.5398   13.1342 C.ar    1  UNL1        0.1363
      6 C          62.8291   90.6767   11.8669 C.ar    1  UNL1        0.0922
      7 C          62.3368   89.4522   11.1541 C.ar    1  UNL1        0.2338
      8 N          62.6352   88.0907   11.7085 N.ar    1  UNL1       -0.1920
      9 C          63.4260   87.9538   12.9757 C.ar    1  UNL1        0.1697
     10 C          63.9155   82.8860   10.2848 C.3     1  UNL1        0.0312
     11 C          63.6198   83.3874   11.6672 C.ar    1  UNL1       -0.0175
     12 C          63.8937   84.8193   12.0203 C.ar    1  UNL1       -0.0040
     13 C          63.5980   85.3207   13.4027 C.ar    1  UNL1        0.0042
     14 C          63.0284   84.3903   14.4321 C.ar    1  UNL1        0.0003
     15 C          62.7545   82.9583   14.0791 C.ar    1  UNL1        0.0042
     16 C          63.0502   82.4569   12.6966 C.ar    1  UNL1        0.0494
     17 C          62.7763   81.0250   12.3436 C.2     1  UNL1        0.2455
     18 O          62.1226   80.1180   13.3436 O.2     1  UNL1       -0.2702
     19 N          63.1561   80.5002   10.9908 N.am    1  UNL1       -0.3025
     20 H          63.5852   81.0955   10.3345 H       1  UNL1        0.1497
     21 C          62.8822   79.0682   10.6378 C.3     1  UNL1        0.0720
     22 C          62.4538   77.6893   11.0438 C.3     1  UNL1        0.0213
     23 C          62.8362   77.9671    9.6203 C.3     1  UNL1        0.0213
     24 N          64.1122   91.7643   13.8471 N.pl3   1  UNL1       -0.3167
     25 H          63.4750   92.3514   14.3145 H       1  UNL1        0.1482
     26 C          65.5755   92.0942   13.8478 C.3     1  UNL1        0.1057
     27 C          66.0447   93.4241   13.3365 C.3     1  UNL1        0.0937
     28 N          66.5640   93.5478   11.9347 N.3     1  UNL1       -0.2670
     29 C          66.4243   94.8453   11.1951 C.3     1  UNL1        0.1047
     30 C          66.9436   94.9691    9.7932 C.3     1  UNL1        0.1595
     31 O          67.6025   93.7955    9.1311 O.3     1  UNL1       -0.3508
     32 C          67.7421   92.4980    9.8708 C.3     1  UNL1        0.1595
     33 C          67.2229   92.3742   11.2726 C.3     1  UNL1        0.1047
     34 O          61.5460   89.5892    9.8868 O.3     1  UNL1       -0.4359
     35 C          61.0994   88.3641    9.1454 C.ar    1  UNL1        0.1494
     36 C          59.7132   88.2953    8.5767 C.ar    1  UNL1        0.0377
     37 C          59.2666   87.0703    7.8352 C.ar    1  UNL1        0.0054
     38 C          60.2063   85.9140    7.6624 C.ar    1  UNL1        0.0298
     39 C          61.5926   85.9827    8.2311 C.ar    1  UNL1        0.1432
     40 F          62.5323   84.8264    8.0584 F       1  UNL1       -0.2041
     41 C          62.0391   87.2078    8.9726 C.ar    1  UNL1        0.0672
@<TRIPOS>BOND
     1    10    11    1
     2    11    12   ar
     3    12    13   ar
     4    13     1    1
     5     1     2   ar
     6     2     3   ar
     7     3     4   ar
     8     4     5   ar
     9     5    24    1
    10    24    26    1
    11    26    27    1
    12    27    28    1
    13    28    29    1
    14    29    30    1
    15    30    31    1
    16    31    32    1
    17    32    33    1
    18     5     6   ar
    19     6     7   ar
    20     7    34    1
    21    34    35    1
    22    35    36   ar
    23    36    37   ar
    24    37    38   ar
    25    38    39   ar
    26    39    40    1
    27    39    41   ar
    28     7     8   ar
    29     8     9   ar
    30    13    14   ar
    31    14    15   ar
    32    15    16   ar
    33    16    17    1
    34    17    18    2
    35    17    19   am
    36    19    21    1
    37    21    22    1
    38    22    23    1
    39    16    11   ar
    40    23    21    1
    41     9     1   ar
    42     9     4   ar
    43    33    28    1
    44    41    35   ar
    45    24    25    1
    46    19    20    1
@<TRIPOS>MOLECULE
*****
 41 46 0 0 0
SMALL
GASTEIGER

@<TRIPOS>ATOM
      1 C          63.3169   85.9369   15.4019 C.ar    1  UNL1        0.0568
      2 C          63.3307   86.1230   16.8902 C.ar    1  UNL1        0.1236
      3 N          63.4053   87.5943   17.1727 N.ar    1  UNL1       -0.1610
      4 N          63.4377   88.3174   15.8589 N.ar    1  UNL1       -0.1986
      5 C          63.5098   89.7763   15.5178 C.ar    1  UNL1        0.1363
      6 C          63.5274   90.2109   14.0822 C.ar    1  UNL1        0.0922
      7 C          63.4727   89.1866   12.9878 C.ar    1  UNL1        0.2338
      8 N          63.4006   87.7276   13.3289 N.ar    1  UNL1       -0.1920
      9 C          63.3831   87.2931   14.7645 C.ar    1  UNL1        0.1697
     10 C          60.8979   81.4348   14.4642 C.3     1  UNL1        0.0312
     11 C          62.0394   82.3738   14.2092 C.ar    1  UNL1       -0.0175
     12 C          62.1074   83.6858   14.9330 C.ar    1  UNL1       -0.0040
     13 C          63.2490   84.6249   14.6780 C.ar    1  UNL1        0.0042
     14 C          64.3226   84.2519   13.6991 C.ar    1  UNL1        0.0003
     15 C          64.2545   82.9398   12.9752 C.ar    1  UNL1        0.0042
     16 C          63.1130   82.0008   13.2302 C.ar    1  UNL1        0.0494
     17 C          63.0451   80.6888   12.5063 C.2     1  UNL1        0.2455
     18 O          62.9218   79.4103   13.2811 O.2     1  UNL1       -0.2702
     19 N          63.1004   80.6553   11.0078 N.am    1  UNL1       -0.3025
     20 H          63.1813   81.4944   10.4993 H       1  UNL1        0.1497
     21 C          63.0324   79.3433   10.2839 C.3     1  UNL1        0.0720
     22 C          62.7999   77.8615   10.2995 C.3     1  UNL1        0.0213
     23 C          63.1473   78.5526    9.0144 C.3     1  UNL1        0.0213
     24 N          63.5645   90.8007   16.6122 N.pl3   1  UNL1       -0.3167
     25 H          63.2504   90.5718   17.5167 H       1  UNL1        0.1482
     26 C          64.0977   92.1737   16.3284 C.3     1  UNL1        0.1057
     27 C          65.4929   92.5368   16.7424 C.3     1  UNL1        0.0937
     28 N          66.6121   92.4708   15.7460 N.3     1  UNL1       -0.2670
     29 C          68.0120   92.8070   16.1671 C.3     1  UNL1        0.1047
     30 C          69.1313   92.7411   15.1706 C.3     1  UNL1        0.1595
     31 O          68.8506   92.3389   13.7530 O.3     1  UNL1       -0.3508
     32 C          67.4507   92.0027   13.3319 C.3     1  UNL1        0.1595
     33 C          66.3315   92.0687   14.3284 C.3     1  UNL1        0.1047
     34 O          63.4903   89.6211   11.5522 O.3     1  UNL1       -0.4359
     35 C          62.3831   89.2059   10.6293 C.ar    1  UNL1        0.1494
     36 C          61.2588   90.1535   10.3329 C.ar    1  UNL1        0.0377
     37 C          60.1516   89.7383    9.4100 C.ar    1  UNL1        0.0054
     38 C          60.1687   88.3755    8.7836 C.ar    1  UNL1        0.0298
     39 C          61.2930   87.4279    9.0800 C.ar    1  UNL1        0.1432
     40 F          61.3101   86.0650    8.4536 F       1  UNL1       -0.2041
     41 C          62.4002   87.8431   10.0029 C.ar    1  UNL1        0.0672
@<TRIPOS>BOND
     1    10    11    1
     2    11    12   ar
     3    12    13   ar
     4    13     1    1
     5     1     2   ar
     6     2     3   ar
     7     3     4   ar
     8     4     5   ar
     9     5    24    1
    10    24    26    1
    11    26    27    1
    12    27    28    1
    13    28    29    1
    14    29    30    1
    15    30    31    1
    16    31    32    1
    17    32    33    1
    18     5     6   ar
    19     6     7   ar
    20     7    34    1
    21    34    35    1
    22    35    36   ar
    23    36    37   ar
    24    37    38   ar
    25    38    39   ar
    26    39    40    1
    27    39    41   ar
    28     7     8   ar
    29     8     9   ar
    30    13    14   ar
    31    14    15   ar
    32    15    16   ar
    33    16    17    1
    34    17    18    2
    35    17    19   am
    36    19    21    1
    37    21    22    1
    38    22    23    1
    39    16    11   ar
    40    23    21    1
    41     9     1   ar
    42     9     4   ar
    43    33    28    1
    44    41    35   ar
    45    24    25    1
    46    19    20    1
@<TRIPOS>MOLECULE
*****
 41 46 0 0 0
SMALL
GASTEIGER

@<TRIPOS>ATOM
      1 C          63.1583   90.1713   12.2422 C.ar    1  UNL1        0.0568
      2 C          63.5686   91.5908   11.9840 C.ar    1  UNL1        0.1236
      3 N          64.0078   92.1905   13.2869 N.ar    1  UNL1       -0.1610
      4 N          63.8690   91.1417   14.3502 N.ar    1  UNL1       -0.1986
      5 C          64.1529   91.1618   15.8229 C.ar    1  UNL1        0.1363
      6 C          63.9117   89.9338   16.6501 C.ar    1  UNL1        0.0922
      7 C          63.3866   88.6859   16.0044 C.ar    1  UNL1        0.2338
      8 N          63.1028   88.6658   14.5316 N.ar    1  UNL1       -0.1920
      9 C          63.3440   89.8937   13.7045 C.ar    1  UNL1        0.1697
     10 C          62.4220   85.2776   10.6580 C.3     1  UNL1        0.0312
     11 C          62.2831   86.7529   10.4257 C.ar    1  UNL1       -0.0175
     12 C          62.7901   87.7245   11.4500 C.ar    1  UNL1       -0.0040
     13 C          62.6513   89.1998   11.2178 C.ar    1  UNL1        0.0042
     14 C          62.0055   89.7038    9.9613 C.ar    1  UNL1        0.0003
     15 C          61.4985   88.7323    8.9370 C.ar    1  UNL1        0.0042
     16 C          61.6373   87.2569    9.1692 C.ar    1  UNL1        0.0494
     17 C          61.1303   86.2855    8.1448 C.2     1  UNL1        0.2455
     18 O          59.6548   86.0741    7.9775 O.2     1  UNL1       -0.2702
     19 N          62.0989   85.5255    7.2879 N.am    1  UNL1       -0.3025
     20 H          63.0673   85.6643    7.3977 H       1  UNL1        0.1497
     21 C          61.5919   84.5541    6.2635 C.3     1  UNL1        0.0720
     22 C          60.6160   83.4922    5.8513 C.3     1  UNL1        0.0213
     23 C          61.6897   83.9334    4.9015 C.3     1  UNL1        0.0213
     24 N          64.6780   92.4097   16.4686 N.pl3   1  UNL1       -0.3167
     25 H          64.0580   93.0331   16.9116 H       1  UNL1        0.1482
     26 C          66.1478   92.7080   16.4392 C.3     1  UNL1        0.1057
     27 C          67.0157   92.0986   15.3783 C.3     1  UNL1        0.0937
     28 N          66.9988   92.6540   13.9851 N.3     1  UNL1       -0.2670
     29 C          67.5022   91.8248   12.8410 C.3     1  UNL1        0.1047
     30 C          67.4853   92.3802   11.4477 C.3     1  UNL1        0.1595
     31 O          66.9650   93.7649   11.1985 O.3     1  UNL1       -0.3508
     32 C          66.4616   94.5941   12.3426 C.3     1  UNL1        0.1595
     33 C          66.4785   94.0387   13.7359 C.3     1  UNL1        0.1047
     34 O          63.1455   87.4580   16.8315 O.3     1  UNL1       -0.4359
     35 C          63.2832   86.0983   16.2133 C.ar    1  UNL1        0.1494
     36 C          62.2146   85.0670   16.4237 C.ar    1  UNL1        0.0377
     37 C          62.3523   83.7073   15.8054 C.ar    1  UNL1        0.0054
     38 C          63.5587   83.3789   14.9768 C.ar    1  UNL1        0.0298
     39 C          64.6274   84.4102   14.7664 C.ar    1  UNL1        0.1432
     40 F          65.8338   84.0818   13.9377 F       1  UNL1       -0.2041
     41 C          64.4896   85.7699   15.3846 C.ar    1  UNL1        0.0672
@<TRIPOS>BOND
     1    10    11    1
     2    11    12   ar
     3    12    13   ar
     4    13     1    1
     5     1     2   ar
     6     2     3   ar
     7     3     4   ar
     8     4     5   ar
     9     5    24    1
    10    24    26    1
    11    26    27    1
    12    27    28    1
    13    28    29    1
    14    29    30    1
    15    30    31    1
    16    31    32    1
    17    32    33    1
    18     5     6   ar
    19     6     7   ar
    20     7    34    1
    21    34    35    1
    22    35    36   ar
    23    36    37   ar
    24    37    38   ar
    25    38    39   ar
    26    39    40    1
    27    39    41   ar
    28     7     8   ar
    29     8     9   ar
    30    13    14   ar
    31    14    15   ar
    32    15    16   ar
    33    16    17    1
    34    17    18    2
    35    17    19   am
    36    19    21    1
    37    21    22    1
    38    22    23    1
    39    16    11   ar
    40    23    21    1
    41     9     1   ar
    42     9     4   ar
    43    33    28    1
    44    41    35   ar
    45    24    25    1
    46    19    20    1
