@<TRIPOS>MOLECULE
*****
 45 51 0 0 0
SMALL
GASTEIGER

@<TRIPOS>ATOM
      1 N          60.8781   90.1797    7.1597 N.pl3   1  UNL1       -0.2841
      2 C          61.9837   90.6861    8.0378 C.3     1  UNL1        0.1175
      3 C          62.3407   89.9490    9.2945 C.3     1  UNL1        0.1215
      4 N          61.5922   88.7055    9.6730 N.am    1  UNL1       -0.2403
      5 C          61.9493   87.9684   10.9296 C.2     1  UNL1        0.3078
      6 O          61.2006   86.7248   11.3081 O.2     1  UNL1       -0.2522
      7 N          63.0549   88.4747   11.8077 N.am    1  UNL1       -0.2901
      8 C          60.4865   88.1990    8.7948 C.ar    1  UNL1        0.0689
      9 C          59.7380   86.9555    9.1733 C.ar    1  UNL1        0.0162
     10 C          58.6324   86.4491    8.2952 C.ar    1  UNL1        0.0014
     11 C          58.2753   87.1863    7.0385 C.ar    1  UNL1        0.0014
     12 C          59.0239   88.4298    6.6600 C.ar    1  UNL1        0.0161
     13 C          60.1295   88.9362    7.5382 C.ar    1  UNL1        0.0655
     14 H          63.5462   89.2909   11.5593 H       1  UNL1        0.1509
     15 C          63.4119   87.7376   13.0644 C.3     1  UNL1        0.0730
     16 C          63.2559   86.2471   13.1296 C.3     1  UNL1        0.0185
     17 C          63.7690   87.0005   14.3210 C.3     1  UNL1        0.0017
     18 C          64.1260   86.2634   15.5777 C.3     1  UNL1        0.0006
     19 C          64.2820   87.7538   15.5124 C.3     1  UNL1        0.0017
     20 C          63.9249   88.4909   14.2557 C.3     1  UNL1        0.0185
     21 C          63.8433   85.3150   15.1017 C.3     1  UNL1        0.0102
     22 C          63.4571   84.0196   14.4516 C.3     1  UNL1        0.0687
     23 C          63.9701   84.7729   15.6429 C.3     1  UNL1        0.0086
     24 C          63.1000   84.7567   13.1949 C.3     1  UNL1        0.0102
     25 C          63.3011   82.5292   14.5169 C.2     1  UNL1        0.2184
     26 N          61.9753   81.9290   14.8805 N.am    1  UNL1       -0.3288
     27 O          64.4709   81.6389   14.2186 O.2     1  UNL1       -0.2754
     28 H          61.2076   82.5133   15.0763 H       1  UNL1        0.1449
     29 H          61.8730   80.9508   14.9234 H       1  UNL1        0.1449
     30 C          59.8069   92.3911    3.3898 C.ar    1  UNL1        0.0480
     31 C          61.2177   91.9350    3.6166 C.ar    1  UNL1        0.0158
     32 C          61.5748   91.1979    4.8732 C.ar    1  UNL1        0.0161
     33 C          60.5210   90.9169    5.9030 C.ar    1  UNL1        0.0517
     34 C          59.1101   91.3730    5.6762 C.ar    1  UNL1        0.0161
     35 C          58.7530   92.1101    4.4196 C.ar    1  UNL1        0.0158
     36 N          58.7357   94.6025   -0.3802 N.3     1  UNL1       -0.1559
     37 C          59.5580   95.2775    0.6774 C.3     1  UNL1        0.1168
     38 C          59.9150   94.5404    1.9340 C.3     1  UNL1        0.1099
     39 N          59.4498   93.1283    2.1331 N.pl3   1  UNL1       -0.3045
     40 C          58.6276   92.4533    1.0756 C.3     1  UNL1        0.1099
     41 C          58.2706   93.1905   -0.1811 C.3     1  UNL1        0.1168
     42 C          58.0216   96.0768   -2.8935 C.3     1  UNL1        0.1960
     43 S          58.3787   95.3396   -1.6368 S.O2    1  UNL1        0.0458
     44 O          59.7844   95.1741   -2.1333 O.2     1  UNL1       -0.1572
     45 O          56.9729   95.5052   -1.1403 O.2     1  UNL1       -0.1572
@<TRIPOS>BOND
     1    42    43    1
     2    43    44    2
     3    43    45    2
     4    43    36    1
     5    36    37    1
     6    37    38    1
     7    38    39    1
     8    39    30    1
     9    30    31   ar
    10    31    32   ar
    11    32    33   ar
    12    33     1    1
    13     1     2    1
    14     2     3    1
    15     3     4    1
    16     4     5   am
    17     5     6    2
    18     5     7   am
    19    15     7    1
    20    15    16    1
    21    16    17    1
    22    17    18    1
    23    18    19    1
    24    19    20    1
    25    20    21    1
    26    21    22    1
    27    22    25    1
    28    25    26   am
    29    25    27    2
    30    22    23    1
    31    22    24    1
    32     4     8    1
    33     8     9   ar
    34     9    10   ar
    35    10    11   ar
    36    11    12   ar
    37    12    13   ar
    38    33    34   ar
    39    34    35   ar
    40    39    40    1
    41    40    41    1
    42    41    36    1
    43    35    30   ar
    44    13     1    1
    45    20    15    1
    46    13     8   ar
    47    24    16    1
    48    23    18    1
    49     7    14    1
    50    26    28    1
    51    26    29    1
@<TRIPOS>MOLECULE
*****
 45 51 0 0 0
SMALL
GASTEIGER

@<TRIPOS>ATOM
      1 N          60.4995   90.3129    6.0342 N.pl3   1  UNL1       -0.2841
      2 C          61.5774   90.9177    5.1844 C.3     1  UNL1        0.1175
      3 C          61.2131   91.7501    3.9909 C.3     1  UNL1        0.1215
      4 N          59.7709   91.9778    3.6473 N.am    1  UNL1       -0.2403
      5 C          59.4067   92.8103    2.4538 C.2     1  UNL1        0.3078
      6 O          57.9644   93.0379    2.1102 O.2     1  UNL1       -0.2522
      7 N          60.4846   93.4150    1.6040 N.am    1  UNL1       -0.2901
      8 C          58.6929   91.3731    4.4971 C.ar    1  UNL1        0.0689
      9 C          57.2507   91.6008    4.1535 C.ar    1  UNL1        0.0162
     10 C          56.1727   90.9960    5.0033 C.ar    1  UNL1        0.0014
     11 C          56.5370   90.1636    6.1968 C.ar    1  UNL1        0.0014
     12 C          57.9792   89.9359    6.5404 C.ar    1  UNL1        0.0161
     13 C          59.0572   90.5406    5.6906 C.ar    1  UNL1        0.0655
     14 H          61.4312   93.2656    1.8295 H       1  UNL1        0.1509
     15 C          60.1203   94.2474    0.4105 C.3     1  UNL1        0.0730
     16 C          59.4958   93.6026   -0.7913 C.3     1  UNL1        0.0185
     17 C          59.7561   95.0799   -0.7829 C.3     1  UNL1        0.0017
     18 C          59.3918   95.9123   -1.9764 C.3     1  UNL1        0.0006
     19 C          60.0163   96.5571   -0.7747 C.3     1  UNL1        0.0017
     20 C          60.3806   95.7246    0.4188 C.3     1  UNL1        0.0185
     21 C          59.0179   95.0154   -2.4878 C.3     1  UNL1        0.0102
     22 C          58.5070   93.7903   -3.1865 C.3     1  UNL1        0.0687
     23 C          58.7673   95.2675   -3.1782 C.3     1  UNL1        0.0086
     24 C          58.8713   92.9578   -1.9930 C.3     1  UNL1        0.0102
     25 C          57.8825   93.1455   -4.3882 C.2     1  UNL1        0.2184
     26 N          57.4441   91.7123   -4.3276 N.am    1  UNL1       -0.3288
     27 O          57.6964   93.9340   -5.6506 O.2     1  UNL1       -0.2754
     28 H          57.5663   91.1948   -3.4990 H       1  UNL1        0.1449
     29 H          57.0342   91.2891   -5.1163 H       1  UNL1        0.1449
     30 C          61.5923   87.8156    9.6146 C.ar    1  UNL1        0.0480
     31 C          61.9301   89.2768    9.5881 C.ar    1  UNL1        0.0158
     32 C          61.5658   90.1093    8.3946 C.ar    1  UNL1        0.0161
     33 C          60.8637   89.4805    7.2277 C.ar    1  UNL1        0.0517
     34 C          60.5259   88.0192    7.2542 C.ar    1  UNL1        0.0161
     35 C          60.8902   87.1868    8.4477 C.ar    1  UNL1        0.0158
     36 N          62.6851   85.3183   13.1950 N.3     1  UNL1       -0.1559
     37 C          61.9150   84.7079   12.0616 C.3     1  UNL1        0.1168
     38 C          61.5507   85.5403   10.8682 C.3     1  UNL1        0.1099
     39 N          61.9565   86.9832   10.8081 N.pl3   1  UNL1       -0.3045
     40 C          62.7266   87.5935   11.9414 C.3     1  UNL1        0.1099
     41 C          63.0908   86.7611   13.1349 C.3     1  UNL1        0.1168
     42 C          63.4136   83.6534   15.5819 C.3     1  UNL1        0.1960
     43 S          63.0493   84.4859   14.3885 S.O2    1  UNL1        0.0458
     44 O          61.7549   84.8625   15.0462 O.2     1  UNL1       -0.1572
     45 O          64.3438   84.1093   13.7307 O.2     1  UNL1       -0.1572
@<TRIPOS>BOND
     1    42    43    1
     2    43    44    2
     3    43    45    2
     4    43    36    1
     5    36    37    1
     6    37    38    1
     7    38    39    1
     8    39    30    1
     9    30    31   ar
    10    31    32   ar
    11    32    33   ar
    12    33     1    1
    13     1     2    1
    14     2     3    1
    15     3     4    1
    16     4     5   am
    17     5     6    2
    18     5     7   am
    19    15     7    1
    20    15    16    1
    21    16    17    1
    22    17    18    1
    23    18    19    1
    24    19    20    1
    25    20    21    1
    26    21    22    1
    27    22    25    1
    28    25    26   am
    29    25    27    2
    30    22    23    1
    31    22    24    1
    32     4     8    1
    33     8     9   ar
    34     9    10   ar
    35    10    11   ar
    36    11    12   ar
    37    12    13   ar
    38    33    34   ar
    39    34    35   ar
    40    39    40    1
    41    40    41    1
    42    41    36    1
    43    35    30   ar
    44    13     1    1
    45    20    15    1
    46    13     8   ar
    47    24    16    1
    48    23    18    1
    49     7    14    1
    50    26    28    1
    51    26    29    1
