@<TRIPOS>MOLECULE
*****
 31 35 0 0 0
SMALL
GASTEIGER

@<TRIPOS>ATOM
      1 C          63.6416   88.7733   15.8344 C.ar    1  UNL1        0.0207
      2 C          64.3949   88.1456   14.6993 C.ar    1  UNL1        0.0994
      3 N          64.5359   86.6540   14.6265 N.ar    1  UNL1       -0.2126
      4 C          63.9235   85.7900   15.6888 C.ar    1  UNL1        0.2172
      5 N          63.1701   86.4177   16.8239 N.ar    1  UNL1       -0.2126
      6 C          63.0291   87.9093   16.8968 C.ar    1  UNL1        0.0994
      7 N          64.0644   84.2985   15.6159 N.pl3   1  UNL1       -0.2978
      8 H          64.7361   83.8398   16.1707 H       1  UNL1        0.1500
      9 C          63.1821   83.5057   14.6978 C.3     1  UNL1        0.1360
     10 C          63.2950   83.6812   13.2124 C.ar    1  UNL1        0.0802
     11 C          64.2708   82.8520   12.4312 C.ar    1  UNL1        0.0165
     12 C          64.3838   83.0275   10.9458 C.ar    1  UNL1        0.0041
     13 C          63.5210   84.0323   10.2415 C.ar    1  UNL1        0.0343
     14 C          62.5452   84.8615   11.0227 C.ar    1  UNL1        0.1313
     15 N          62.4322   84.6860   12.5081 N.ar    1  UNL1       -0.2333
     16 N          61.6823   85.8662   10.3184 N.pl3   1  UNL1       -0.2933
     17 C          61.4671   85.9592    8.8368 C.3     1  UNL1        0.0922
     18 C          60.5350   87.1048    8.5748 C.3     1  UNL1        0.0232
     19 C          60.1742   87.7200    9.8944 C.3     1  UNL1        0.0232
     20 C          60.8832   86.9546   10.9720 C.3     1  UNL1        0.0922
     21 C          63.5006   90.2648   15.9073 C.3     1  UNL1        0.0596
     22 C          62.6179   90.5607   10.0828 C.3     1  UNL1        0.0307
     23 C          63.5386   91.1384   11.1165 C.2     1  UNL1        0.0074
     24 C          64.6161   92.0989   10.7084 C.2     1  UNL1        0.2278
     25 N          65.5368   92.6766   11.7421 N.2     1  UNL1       -0.0314
     26 C          65.3800   92.2938   13.1839 C.2     1  UNL1        0.3716
     27 N          66.1324   92.6976   14.4171 N.2     1  UNL1       -0.0311
     28 C          65.5200   91.9867   15.5874 C.2     1  UNL1        0.2319
     29 C          64.3891   91.1435   15.0775 C.2     1  UNL1        0.0328
     30 C          64.3026   91.3333   13.5920 C.2     1  UNL1        0.0704
     31 C          63.3819   90.7557   12.5583 C.3     1  UNL1        0.0598
@<TRIPOS>BOND
     1    22    23    1
     2    23    24    2
     3    24    25    1
     4    25    26    2
     5    26    27    1
     6    27    28    2
     7    28    29    1
     8    29    21    1
     9    21     1    1
    10     1     2   ar
    11     2     3   ar
    12     3     4   ar
    13     4     7    1
    14     7     9    1
    15     9    10    1
    16    10    11   ar
    17    11    12   ar
    18    12    13   ar
    19    13    14   ar
    20    14    16    1
    21    16    17    1
    22    17    18    1
    23    18    19    1
    24    19    20    1
    25    14    15   ar
    26     4     5   ar
    27     5     6   ar
    28    29    30    2
    29    30    31    1
    30    31    23    1
    31    30    26    1
    32     6     1   ar
    33    15    10   ar
    34    20    16    1
    35     7     8    1
@<TRIPOS>MOLECULE
*****
 31 35 0 0 0
SMALL
GASTEIGER

@<TRIPOS>ATOM
      1 C          63.7202   87.7855   15.6692 C.ar    1  UNL1        0.0207
      2 C          64.6020   87.1089   14.6620 C.ar    1  UNL1        0.0994
      3 N          64.6373   85.6115   14.5817 N.ar    1  UNL1       -0.2126
      4 C          63.7907   84.7905   15.5088 C.ar    1  UNL1        0.2172
      5 N          62.9089   85.4672   16.5161 N.ar    1  UNL1       -0.2126
      6 C          62.8736   86.9646   16.5964 C.ar    1  UNL1        0.0994
      7 N          63.8260   83.2931   15.4285 N.pl3   1  UNL1       -0.2978
      8 H          64.3319   82.7761   16.0964 H       1  UNL1        0.1500
      9 C          63.0905   82.5834   14.3307 C.3     1  UNL1        0.1360
     10 C          63.3003   82.9903   12.9023 C.ar    1  UNL1        0.0802
     11 C          64.3008   82.2624   12.0543 C.ar    1  UNL1        0.0165
     12 C          64.5106   82.6694   10.6259 C.ar    1  UNL1        0.0041
     13 C          63.7199   83.8042   10.0455 C.ar    1  UNL1        0.0343
     14 C          62.7194   84.5321   10.8936 C.ar    1  UNL1        0.1313
     15 N          62.5096   84.1252   12.3219 N.ar    1  UNL1       -0.2333
     16 N          61.9287   85.6670   10.3131 N.pl3   1  UNL1       -0.2933
     17 C          61.0298   86.5956   11.0746 C.3     1  UNL1        0.0922
     18 C          60.4436   87.5750   10.1014 C.3     1  UNL1        0.0232
     19 C          60.9803   87.2519    8.7385 C.3     1  UNL1        0.0232
     20 C          61.8981   86.0727    8.8693 C.3     1  UNL1        0.0922
     21 C          63.6849   89.2829   15.7495 C.3     1  UNL1        0.0596
     22 C          68.2343   93.0055   15.2622 C.3     1  UNL1        0.0307
     23 C          67.0451   92.5641   14.4615 C.2     1  UNL1        0.0074
     24 C          66.7946   93.1519   13.1044 C.2     1  UNL1        0.2278
     25 N          65.6055   92.7105   12.3037 N.2     1  UNL1       -0.0314
     26 C          64.6668   91.6813   12.8600 C.2     1  UNL1        0.3716
     27 N          63.4211   91.0555   12.3066 N.2     1  UNL1       -0.0311
     28 C          62.9016   90.0808   13.3216 C.2     1  UNL1        0.2319
     29 C          63.8263   90.1043   14.5024 C.2     1  UNL1        0.0328
     30 C          64.9173   91.0935   14.2171 C.2     1  UNL1        0.0704
     31 C          66.1064   91.5349   15.0178 C.3     1  UNL1        0.0598
@<TRIPOS>BOND
     1    22    23    1
     2    23    24    2
     3    24    25    1
     4    25    26    2
     5    26    27    1
     6    27    28    2
     7    28    29    1
     8    29    21    1
     9    21     1    1
    10     1     2   ar
    11     2     3   ar
    12     3     4   ar
    13     4     7    1
    14     7     9    1
    15     9    10    1
    16    10    11   ar
    17    11    12   ar
    18    12    13   ar
    19    13    14   ar
    20    14    16    1
    21    16    17    1
    22    17    18    1
    23    18    19    1
    24    19    20    1
    25    14    15   ar
    26     4     5   ar
    27     5     6   ar
    28    29    30    2
    29    30    31    1
    30    31    23    1
    31    30    26    1
    32     6     1   ar
    33    15    10   ar
    34    20    16    1
    35     7     8    1
@<TRIPOS>MOLECULE
*****
 31 35 0 0 0
SMALL
GASTEIGER

@<TRIPOS>ATOM
      1 C          64.5408   91.3881   12.7643 C.ar    1  UNL1        0.0207
      2 C          63.8990   91.4066   11.4087 C.ar    1  UNL1        0.0994
      3 N          62.6653   90.5931   11.1517 N.ar    1  UNL1       -0.2126
      4 C          62.0732   89.7610   12.2505 C.ar    1  UNL1        0.2172
      5 N          62.7151   89.7425   13.6061 N.ar    1  UNL1       -0.2126
      6 C          63.9488   90.5560   13.8631 C.ar    1  UNL1        0.0994
      7 N          60.8395   88.9475   11.9935 N.pl3   1  UNL1       -0.2978
      8 H          60.1225   88.9145   12.6674 H       1  UNL1        0.1500
      9 C          60.6981   88.1844   10.7099 C.3     1  UNL1        0.1360
     10 C          61.4961   86.9336   10.4893 C.ar    1  UNL1        0.0802
     11 C          62.0181   86.6086    9.1211 C.ar    1  UNL1        0.0165
     12 C          62.8161   85.3578    8.9005 C.ar    1  UNL1        0.0041
     13 C          63.0921   84.4320   10.0480 C.ar    1  UNL1        0.0343
     14 C          62.5701   84.7571   11.4162 C.ar    1  UNL1        0.1313
     15 N          61.7721   86.0078   11.6367 N.ar    1  UNL1       -0.2333
     16 N          62.8461   83.8313   12.5637 N.pl3   1  UNL1       -0.2933
     17 C          62.6821   84.1572   14.0187 C.3     1  UNL1        0.0922
     18 C          63.0692   82.9444   14.8119 C.3     1  UNL1        0.0232
     19 C          63.4724   81.8689   13.8472 C.3     1  UNL1        0.0232
     20 C          63.3345   82.4169   12.4577 C.3     1  UNL1        0.0922
     21 C          65.7746   92.2016   13.0212 C.3     1  UNL1        0.0596
     22 C          64.7420   96.8546    9.5463 C.3     1  UNL1        0.0307
     23 C          65.7510   95.7541    9.6902 C.2     1  UNL1        0.0074
     24 C          66.9100   95.6704    8.7416 C.2     1  UNL1        0.2278
     25 N          67.9190   94.5698    8.8855 N.2     1  UNL1       -0.0314
     26 C          67.7690   93.5529    9.9779 C.2     1  UNL1        0.3716
     27 N          68.5988   92.3644   10.3636 N.2     1  UNL1       -0.0311
     28 C          67.9527   91.7135   11.5506 C.2     1  UNL1        0.2319
     29 C          66.7236   92.4997   11.8985 C.2     1  UNL1        0.0328
     30 C          66.6101   93.6366   10.9265 C.2     1  UNL1        0.0704
     31 C          65.6011   94.7372   10.7826 C.3     1  UNL1        0.0598
@<TRIPOS>BOND
     1    22    23    1
     2    23    24    2
     3    24    25    1
     4    25    26    2
     5    26    27    1
     6    27    28    2
     7    28    29    1
     8    29    21    1
     9    21     1    1
    10     1     2   ar
    11     2     3   ar
    12     3     4   ar
    13     4     7    1
    14     7     9    1
    15     9    10    1
    16    10    11   ar
    17    11    12   ar
    18    12    13   ar
    19    13    14   ar
    20    14    16    1
    21    16    17    1
    22    17    18    1
    23    18    19    1
    24    19    20    1
    25    14    15   ar
    26     4     5   ar
    27     5     6   ar
    28    29    30    2
    29    30    31    1
    30    31    23    1
    31    30    26    1
    32     6     1   ar
    33    15    10   ar
    34    20    16    1
    35     7     8    1
@<TRIPOS>MOLECULE
*****
 31 35 0 0 0
SMALL
GASTEIGER

@<TRIPOS>ATOM
      1 C          63.2902   84.3651   14.7027 C.ar    1  UNL1        0.0207
      2 C          64.2459   85.4792   14.3940 C.ar    1  UNL1        0.0994
      3 N          64.1922   86.7538   15.1830 N.ar    1  UNL1       -0.2126
      4 C          63.1828   86.9143   16.2808 C.ar    1  UNL1        0.2172
      5 N          62.2270   85.8001   16.5896 N.ar    1  UNL1       -0.2126
      6 C          62.2807   84.5255   15.8006 C.ar    1  UNL1        0.0994
      7 N          63.1291   88.1889   17.0699 N.pl3   1  UNL1       -0.2978
      8 H          63.4134   88.1967   18.0124 H       1  UNL1        0.1500
      9 C          62.6422   89.4515   16.4228 C.3     1  UNL1        0.1360
     10 C          63.4459   90.0927   15.3306 C.ar    1  UNL1        0.0802
     11 C          62.9503   90.0577   13.9153 C.ar    1  UNL1        0.0165
     12 C          63.7540   90.6989   12.8231 C.ar    1  UNL1        0.0041
     13 C          65.0534   91.3751   13.1462 C.ar    1  UNL1        0.0343
     14 C          65.5490   91.4101   14.5616 C.ar    1  UNL1        0.1313
     15 N          64.7453   90.7689   15.6537 N.ar    1  UNL1       -0.2333
     16 N          66.8483   92.0863   14.8847 N.pl3   1  UNL1       -0.2933
     17 C          67.1289   92.9237   16.0972 C.3     1  UNL1        0.0922
     18 C          68.5493   93.3988   16.0139 C.3     1  UNL1        0.0232
     19 C          69.1465   92.8551   14.7500 C.3     1  UNL1        0.0232
     20 C          68.0954   92.0440   14.0520 C.3     1  UNL1        0.0922
     21 C          63.3439   83.0905   13.9137 C.3     1  UNL1        0.0596
     22 C          60.8263   87.2230   10.5408 C.3     1  UNL1        0.0307
     23 C          61.7808   86.0748   10.3970 C.2     1  UNL1        0.0074
     24 C          62.3615   85.7459    9.0536 C.2     1  UNL1        0.2278
     25 N          63.3160   84.5978    8.9098 N.2     1  UNL1       -0.0314
     26 C          63.6898   83.7785   10.1094 C.2     1  UNL1        0.3716
     27 N          64.5986   82.5966   10.2740 N.2     1  UNL1       -0.0311
     28 C          64.5797   82.1950   11.7192 C.2     1  UNL1        0.2319
     29 C          63.6591   83.1287   12.4477 C.2     1  UNL1        0.0328
     30 C          63.1092   84.1074   11.4527 C.2     1  UNL1        0.0704
     31 C          62.1547   85.2556   11.5965 C.3     1  UNL1        0.0598
@<TRIPOS>BOND
     1    22    23    1
     2    23    24    2
     3    24    25    1
     4    25    26    2
     5    26    27    1
     6    27    28    2
     7    28    29    1
     8    29    21    1
     9    21     1    1
    10     1     2   ar
    11     2     3   ar
    12     3     4   ar
    13     4     7    1
    14     7     9    1
    15     9    10    1
    16    10    11   ar
    17    11    12   ar
    18    12    13   ar
    19    13    14   ar
    20    14    16    1
    21    16    17    1
    22    17    18    1
    23    18    19    1
    24    19    20    1
    25    14    15   ar
    26     4     5   ar
    27     5     6   ar
    28    29    30    2
    29    30    31    1
    30    31    23    1
    31    30    26    1
    32     6     1   ar
    33    15    10   ar
    34    20    16    1
    35     7     8    1
@<TRIPOS>MOLECULE
*****
 31 35 0 0 0
SMALL
GASTEIGER

@<TRIPOS>ATOM
      1 C          63.8499   91.6611   11.0052 C.ar    1  UNL1        0.0207
      2 C          63.7009   91.0236   12.3548 C.ar    1  UNL1        0.0994
      3 N          62.6740   89.9513   12.5686 N.ar    1  UNL1       -0.2126
      4 C          61.7960   89.5165   11.4328 C.ar    1  UNL1        0.2172
      5 N          61.9450   90.1541   10.0832 N.ar    1  UNL1       -0.2126
      6 C          62.9719   91.2263    9.8694 C.ar    1  UNL1        0.0994
      7 N          60.7691   88.4443   11.6466 N.pl3   1  UNL1       -0.2978
      8 H          60.2836   88.3911   12.5015 H       1  UNL1        0.1500
      9 C          60.4818   87.4532   10.5580 C.3     1  UNL1        0.1360
     10 C          61.4680   86.3641   10.2559 C.ar    1  UNL1        0.0802
     11 C          62.1421   86.3128    8.9169 C.ar    1  UNL1        0.0165
     12 C          63.1283   85.2237    8.6149 C.ar    1  UNL1        0.0041
     13 C          63.4405   84.1858    9.6519 C.ar    1  UNL1        0.0343
     14 C          62.7664   84.2371   10.9909 C.ar    1  UNL1        0.1313
     15 N          61.7802   85.3262   11.2929 N.ar    1  UNL1       -0.2333
     16 N          63.0785   83.1992   12.0279 N.pl3   1  UNL1       -0.2933
     17 C          62.7673   81.7350   11.9315 C.3     1  UNL1        0.0922
     18 C          63.2531   81.0741   13.1873 C.3     1  UNL1        0.0232
     19 C          63.8647   82.1298   14.0599 C.3     1  UNL1        0.0232
     20 C          63.7568   83.4432   13.3434 C.3     1  UNL1        0.0922
     21 C          64.8768   92.7333   10.7914 C.3     1  UNL1        0.0596
     22 C          66.5452   92.6689   16.4487 C.3     1  UNL1        0.0307
     23 C          67.1538   92.4899   15.0894 C.2     1  UNL1        0.0074
     24 C          68.6197   92.2015   14.9561 C.2     1  UNL1        0.2278
     25 N          69.2283   92.0225   13.5969 N.2     1  UNL1       -0.0314
     26 C          68.3710   92.1320   12.3709 C.2     1  UNL1        0.3716
     27 N          68.6874   92.0047   10.9102 N.2     1  UNL1       -0.0311
     28 C          67.4170   92.2144   10.1407 C.2     1  UNL1        0.2319
     29 C          66.3154   92.4714   11.1259 C.2     1  UNL1        0.0328
     30 C          66.9051   92.4204   12.5042 C.2     1  UNL1        0.0704
     31 C          66.2965   92.5994   13.8635 C.3     1  UNL1        0.0598
@<TRIPOS>BOND
     1    22    23    1
     2    23    24    2
     3    24    25    1
     4    25    26    2
     5    26    27    1
     6    27    28    2
     7    28    29    1
     8    29    21    1
     9    21     1    1
    10     1     2   ar
    11     2     3   ar
    12     3     4   ar
    13     4     7    1
    14     7     9    1
    15     9    10    1
    16    10    11   ar
    17    11    12   ar
    18    12    13   ar
    19    13    14   ar
    20    14    16    1
    21    16    17    1
    22    17    18    1
    23    18    19    1
    24    19    20    1
    25    14    15   ar
    26     4     5   ar
    27     5     6   ar
    28    29    30    2
    29    30    31    1
    30    31    23    1
    31    30    26    1
    32     6     1   ar
    33    15    10   ar
    34    20    16    1
    35     7     8    1
@<TRIPOS>MOLECULE
*****
 31 35 0 0 0
SMALL
GASTEIGER

@<TRIPOS>ATOM
      1 C          63.1485   84.6611   10.2728 C.ar    1  UNL1        0.0207
      2 C          64.0617   83.5723   10.7528 C.ar    1  UNL1        0.0994
      3 N          64.1369   83.2467   12.2151 N.ar    1  UNL1       -0.2126
      4 C          63.2989   84.0100   13.1975 C.ar    1  UNL1        0.2172
      5 N          62.3856   85.0989   12.7175 N.ar    1  UNL1       -0.2126
      6 C          62.3104   85.4245   11.2552 C.ar    1  UNL1        0.0994
      7 N          63.3741   83.6844   14.6598 N.pl3   1  UNL1       -0.2978
      8 H          62.8437   82.9404   15.0264 H       1  UNL1        0.1500
      9 C          64.2574   84.4924   15.5636 C.3     1  UNL1        0.1360
     10 C          63.8683   85.8920   15.9373 C.ar    1  UNL1        0.0802
     11 C          63.1119   86.1464   17.2074 C.ar    1  UNL1        0.0165
     12 C          62.7229   87.5460   17.5811 C.ar    1  UNL1        0.0041
     13 C          63.0901   88.6913   16.6848 C.ar    1  UNL1        0.0343
     14 C          63.8466   88.4368   15.4146 C.ar    1  UNL1        0.1313
     15 N          64.2356   87.0373   15.0410 N.ar    1  UNL1       -0.2333
     16 N          64.2138   89.5821   14.5183 N.pl3   1  UNL1       -0.2933
     17 C          63.5291   89.9532   13.2363 C.3     1  UNL1        0.0922
     18 C          64.2224   91.1578   12.6722 C.3     1  UNL1        0.0232
     19 C          65.3357   91.5313   13.6055 C.3     1  UNL1        0.0232
     20 C          65.3304   90.5575   14.7465 C.3     1  UNL1        0.0922
     21 C          63.0733   84.9867    8.8105 C.3     1  UNL1        0.0596
     22 C          61.5161   90.4257   10.4791 C.3     1  UNL1        0.0307
     23 C          61.0206   89.3362    9.5750 C.2     1  UNL1        0.0074
     24 C          59.7605   89.5321    8.7852 C.2     1  UNL1        0.2278
     25 N          59.2649   88.4427    7.8811 N.2     1  UNL1       -0.0314
     26 C          60.0295   87.1573    7.7667 C.2     1  UNL1        0.3716
     27 N          59.7879   85.9138    6.9633 N.2     1  UNL1       -0.0311
     28 C          60.8987   84.9493    7.2566 C.2     1  UNL1        0.2319
     29 C          61.8268   85.5967    8.2412 C.2     1  UNL1        0.0328
     30 C          61.2896   86.9614    8.5564 C.2     1  UNL1        0.0704
     31 C          61.7851   88.0508    9.4606 C.3     1  UNL1        0.0598
@<TRIPOS>BOND
     1    22    23    1
     2    23    24    2
     3    24    25    1
     4    25    26    2
     5    26    27    1
     6    27    28    2
     7    28    29    1
     8    29    21    1
     9    21     1    1
    10     1     2   ar
    11     2     3   ar
    12     3     4   ar
    13     4     7    1
    14     7     9    1
    15     9    10    1
    16    10    11   ar
    17    11    12   ar
    18    12    13   ar
    19    13    14   ar
    20    14    16    1
    21    16    17    1
    22    17    18    1
    23    18    19    1
    24    19    20    1
    25    14    15   ar
    26     4     5   ar
    27     5     6   ar
    28    29    30    2
    29    30    31    1
    30    31    23    1
    31    30    26    1
    32     6     1   ar
    33    15    10   ar
    34    20    16    1
    35     7     8    1
@<TRIPOS>MOLECULE
*****
 31 35 0 0 0
SMALL
GASTEIGER

@<TRIPOS>ATOM
      1 C          62.1680   86.9514   10.6848 C.ar    1  UNL1        0.0207
      2 C          61.5304   88.1737   10.0938 C.ar    1  UNL1        0.0994
      3 N          61.6890   89.5035   10.7695 N.ar    1  UNL1       -0.2126
      4 C          62.4852   89.6109   12.0362 C.ar    1  UNL1        0.2172
      5 N          63.1228   88.3885   12.6272 N.ar    1  UNL1       -0.2126
      6 C          62.9642   87.0587   11.9515 C.ar    1  UNL1        0.0994
      7 N          62.6437   90.9407   12.7119 N.pl3   1  UNL1       -0.2978
      8 H          62.1457   91.7231   12.3817 H       1  UNL1        0.1500
      9 C          63.5611   91.0783   13.8907 C.3     1  UNL1        0.1360
     10 C          65.0041   91.4298   13.6810 C.ar    1  UNL1        0.0802
     11 C          65.9862   91.2681   14.8031 C.ar    1  UNL1        0.0165
     12 C          67.4293   91.6196   14.5934 C.ar    1  UNL1        0.0041
     13 C          67.8903   92.1329   13.2615 C.ar    1  UNL1        0.0343
     14 C          66.9081   92.2946   12.1393 C.ar    1  UNL1        0.1313
     15 N          65.4651   91.9431   12.3491 N.ar    1  UNL1       -0.2333
     16 N          67.3691   92.8079   10.8074 N.pl3   1  UNL1       -0.2933
     17 C          68.2582   92.0813    9.8421 C.3     1  UNL1        0.0922
     18 C          68.4606   92.9623    8.6450 C.3     1  UNL1        0.0232
     19 C          67.6967   94.2333    8.8704 C.3     1  UNL1        0.0232
     20 C          67.0221   94.1380   10.2068 C.3     1  UNL1        0.0922
     21 C          62.0095   85.6216   10.0091 C.3     1  UNL1        0.0596
     22 C          62.2352   83.7566   15.6004 C.3     1  UNL1        0.0307
     23 C          62.8593   83.4325   14.2754 C.2     1  UNL1        0.0074
     24 C          63.8654   82.3249   14.1712 C.2     1  UNL1        0.2278
     25 N          64.4895   82.0007   12.8463 N.2     1  UNL1       -0.0314
     26 C          64.1074   82.7841   11.6256 C.2     1  UNL1        0.3716
     27 N          64.5512   82.6941   10.1955 N.2     1  UNL1       -0.0311
     28 C          63.8193   83.7460    9.4159 C.2     1  UNL1        0.2319
     29 C          62.9232   84.4863   10.3641 C.2     1  UNL1        0.0328
     30 C          63.1013   83.8917   11.7298 C.2     1  UNL1        0.0704
     31 C          62.4772   84.2159   13.0547 C.3     1  UNL1        0.0598
@<TRIPOS>BOND
     1    22    23    1
     2    23    24    2
     3    24    25    1
     4    25    26    2
     5    26    27    1
     6    27    28    2
     7    28    29    1
     8    29    21    1
     9    21     1    1
    10     1     2   ar
    11     2     3   ar
    12     3     4   ar
    13     4     7    1
    14     7     9    1
    15     9    10    1
    16    10    11   ar
    17    11    12   ar
    18    12    13   ar
    19    13    14   ar
    20    14    16    1
    21    16    17    1
    22    17    18    1
    23    18    19    1
    24    19    20    1
    25    14    15   ar
    26     4     5   ar
    27     5     6   ar
    28    29    30    2
    29    30    31    1
    30    31    23    1
    31    30    26    1
    32     6     1   ar
    33    15    10   ar
    34    20    16    1
    35     7     8    1
@<TRIPOS>MOLECULE
*****
 31 35 0 0 0
SMALL
GASTEIGER

@<TRIPOS>ATOM
      1 C          63.4728   85.1227   15.0282 C.ar    1  UNL1        0.0207
      2 C          64.2809   86.1998   14.3673 C.ar    1  UNL1        0.0994
      3 N          64.2719   87.5927   14.9237 N.ar    1  UNL1       -0.2126
      4 C          63.4546   87.9086   16.1412 C.ar    1  UNL1        0.2172
      5 N          62.6464   86.8315   16.8022 N.ar    1  UNL1       -0.2126
      6 C          62.6555   85.4386   16.2457 C.ar    1  UNL1        0.0994
      7 N          63.4456   89.3015   16.6977 N.pl3   1  UNL1       -0.2978
      8 H          63.5540   89.4457   17.6655 H       1  UNL1        0.1500
      9 C          63.2713   90.4748   15.7796 C.3     1  UNL1        0.1360
     10 C          64.4439   91.3503   15.4505 C.ar    1  UNL1        0.0802
     11 C          65.2255   92.0027   16.5521 C.ar    1  UNL1        0.0165
     12 C          66.3982   92.8782   16.2230 C.ar    1  UNL1        0.0041
     13 C          66.7894   93.1013   14.7922 C.ar    1  UNL1        0.0343
     14 C          66.0078   92.4489   13.6905 C.ar    1  UNL1        0.1313
     15 N          64.8352   91.5734   14.0197 N.ar    1  UNL1       -0.2333
     16 N          66.3990   92.6720   12.2597 N.pl3   1  UNL1       -0.2933
     17 C          67.5436   92.0158   11.5459 C.3     1  UNL1        0.0922
     18 C          67.5663   92.5287   10.1366 C.3     1  UNL1        0.0232
     19 C          66.4358   93.5020    9.9792 C.3     1  UNL1        0.0232
     20 C          65.7144   93.5906   11.2914 C.3     1  UNL1        0.0922
     21 C          63.4819   83.7298   14.4717 C.3     1  UNL1        0.0596
     22 C          60.8237   87.1323   10.4531 C.3     1  UNL1        0.0307
     23 C          61.7994   85.9940   10.5020 C.2     1  UNL1        0.0074
     24 C          62.3645   85.4355    9.2297 C.2     1  UNL1        0.2278
     25 N          63.3401   84.2972    9.2786 N.2     1  UNL1       -0.0314
     26 C          63.7507   83.7174   10.5996 C.2     1  UNL1        0.3716
     27 N          64.6864   82.6014   10.9587 N.2     1  UNL1       -0.0311
     28 C          64.6996   82.4702   12.4530 C.2     1  UNL1        0.2319
     29 C          63.7720   83.5051   13.0173 C.2     1  UNL1        0.0328
     30 C          63.1855   84.2759   11.8719 C.2     1  UNL1        0.0704
     31 C          62.2099   85.4142   11.8230 C.3     1  UNL1        0.0598
@<TRIPOS>BOND
     1    22    23    1
     2    23    24    2
     3    24    25    1
     4    25    26    2
     5    26    27    1
     6    27    28    2
     7    28    29    1
     8    29    21    1
     9    21     1    1
    10     1     2   ar
    11     2     3   ar
    12     3     4   ar
    13     4     7    1
    14     7     9    1
    15     9    10    1
    16    10    11   ar
    17    11    12   ar
    18    12    13   ar
    19    13    14   ar
    20    14    16    1
    21    16    17    1
    22    17    18    1
    23    18    19    1
    24    19    20    1
    25    14    15   ar
    26     4     5   ar
    27     5     6   ar
    28    29    30    2
    29    30    31    1
    30    31    23    1
    31    30    26    1
    32     6     1   ar
    33    15    10   ar
    34    20    16    1
    35     7     8    1
@<TRIPOS>MOLECULE
*****
 31 35 0 0 0
SMALL
GASTEIGER

@<TRIPOS>ATOM
      1 C          63.6010   86.1103   15.9286 C.ar    1  UNL1        0.0207
      2 C          64.3126   86.8212   14.8158 C.ar    1  UNL1        0.0994
      3 N          64.3149   88.3203   14.7639 N.ar    1  UNL1       -0.2126
      4 C          63.6055   89.1086   15.8248 C.ar    1  UNL1        0.2172
      5 N          62.8939   88.3976   16.9376 N.ar    1  UNL1       -0.2126
      6 C          62.8917   86.8985   16.9895 C.ar    1  UNL1        0.0994
      7 N          63.6078   90.6077   15.7729 N.pl3   1  UNL1       -0.2978
      8 H          62.9116   91.1177   16.2466 H       1  UNL1        0.1500
      9 C          64.6708   91.3297   14.9992 C.3     1  UNL1        0.1360
     10 C          64.5168   91.5303   13.5207 C.ar    1  UNL1        0.0802
     11 C          63.5021   90.7320   12.7572 C.ar    1  UNL1        0.0165
     12 C          63.3481   90.9326   11.2787 C.ar    1  UNL1        0.0041
     13 C          64.2088   91.9315   10.5636 C.ar    1  UNL1        0.0343
     14 C          65.2236   92.7298   11.3272 C.ar    1  UNL1        0.1313
     15 N          65.3776   92.5292   12.8057 N.ar    1  UNL1       -0.2333
     16 N          66.0844   93.7287   10.6122 N.pl3   1  UNL1       -0.2933
     17 C          65.9824   95.2210   10.7245 C.3     1  UNL1        0.0922
     18 C          67.0332   95.8253    9.8410 C.3     1  UNL1        0.0232
     19 C          67.7847   94.7065    9.1826 C.3     1  UNL1        0.0232
     20 C          67.1983   93.4107    9.6592 C.3     1  UNL1        0.0922
     21 C          63.5988   84.6112   15.9805 C.3     1  UNL1        0.0596
     22 C          59.9495   80.2899   14.3069 C.3     1  UNL1        0.0307
     23 C          61.2326   80.9228   13.8561 C.2     1  UNL1        0.0074
     24 C          61.9244   80.4202   12.6237 C.2     1  UNL1        0.2278
     25 N          63.2074   81.0531   12.1729 N.2     1  UNL1       -0.0314
     26 C          63.7987   82.1886   12.9545 C.2     1  UNL1        0.3716
     27 N          65.0416   83.0043   12.7554 N.2     1  UNL1       -0.0311
     28 C          65.1181   84.0112   13.8647 C.2     1  UNL1        0.2319
     29 C          63.9223   83.8177   14.7494 C.2     1  UNL1        0.0328
     30 C          63.1069   82.6912   14.1869 C.2     1  UNL1        0.0704
     31 C          61.8239   82.0584   14.6376 C.3     1  UNL1        0.0598
@<TRIPOS>BOND
     1    22    23    1
     2    23    24    2
     3    24    25    1
     4    25    26    2
     5    26    27    1
     6    27    28    2
     7    28    29    1
     8    29    21    1
     9    21     1    1
    10     1     2   ar
    11     2     3   ar
    12     3     4   ar
    13     4     7    1
    14     7     9    1
    15     9    10    1
    16    10    11   ar
    17    11    12   ar
    18    12    13   ar
    19    13    14   ar
    20    14    16    1
    21    16    17    1
    22    17    18    1
    23    18    19    1
    24    19    20    1
    25    14    15   ar
    26     4     5   ar
    27     5     6   ar
    28    29    30    2
    29    30    31    1
    30    31    23    1
    31    30    26    1
    32     6     1   ar
    33    15    10   ar
    34    20    16    1
    35     7     8    1
