@<TRIPOS>MOLECULE
*****
 32 35 0 0 0
SMALL
GASTEIGER

@<TRIPOS>ATOM
      1 C          59.7381   88.9840    7.6998 C.3     1  UNL1        0.0518
      2 C          60.6453   88.6538    8.8479 C.ar    1  UNL1        0.0568
      3 N          61.1250   89.7423    9.7617 N.ar    1  UNL1       -0.2456
      4 C          62.0321   89.4122   10.9098 C.ar    1  UNL1        0.1319
      5 C          62.4595   87.9935   11.1441 C.ar    1  UNL1        0.0196
      6 C          61.9798   86.9051   10.2303 C.ar    1  UNL1       -0.0015
      7 C          61.0726   87.2353    9.0822 C.ar    1  UNL1        0.0068
      8 C          63.3531   87.9715   12.3487 C.3     1  UNL1        0.1226
      9 N          63.4780   89.3765   12.8589 N.am    1  UNL1       -0.2623
     10 C          62.6616   90.2669   11.9697 C.2     1  UNL1        0.2671
     11 O          62.5026   91.7514   12.1148 O.2     1  UNL1       -0.2682
     12 C          62.4072   85.4864   10.4645 C.ar    1  UNL1        0.0102
     13 C          62.0333   84.7914   11.7401 C.ar    1  UNL1        0.0017
     14 C          62.4606   83.3728   11.9744 C.ar    1  UNL1        0.0114
     15 C          63.2617   82.6492   10.9331 C.ar    1  UNL1        0.0585
     16 CL         63.6890   81.2306   11.1674 Cl      1  UNL1       -0.0822
     17 C          63.6356   83.3442    9.6575 C.ar    1  UNL1        0.0228
     18 C          63.2083   84.7628    9.4232 C.ar    1  UNL1        0.0585
     19 CL         63.5822   85.4578    8.1476 Cl      1  UNL1       -0.0822
     20 C          60.5929   86.1468    8.1683 C.3     1  UNL1        0.0934
     21 N          59.1422   86.0654    7.7957 N.3     1  UNL1       -0.3174
     22 H          58.5898   85.8478    8.6251 H       1  UNL1        0.1192
     23 H          59.0109   85.3331    7.0979 H       1  UNL1        0.1192
     24 C          64.2786   89.8144   14.0494 C.3     1  UNL1        0.1798
     25 C          63.7094   89.6716   15.4298 C.2     1  UNL1        0.2461
     26 O          63.2998   90.8906   16.2019 O.2     1  UNL1       -0.2730
     27 N          63.5497   88.3098   16.0381 N.am    1  UNL1       -0.2730
     28 C          63.9592   87.0908   15.2660 C.3     1  UNL1        0.1255
     29 C          63.7996   85.7289   15.8742 C.3     1  UNL1        0.1636
     30 O          63.2303   85.5862   17.2546 O.3     1  UNL1       -0.3501
     31 C          62.8207   86.8053   18.0268 C.3     1  UNL1        0.1636
     32 C          62.9804   88.1671   17.4185 C.3     1  UNL1        0.1255
@<TRIPOS>BOND
     1     1     2    1
     2     2     3   ar
     3     3     4   ar
     4     4     5   ar
     5     5     6   ar
     6     6    12    1
     7    12    13   ar
     8    13    14   ar
     9    14    15   ar
    10    15    16    1
    11    15    17   ar
    12    17    18   ar
    13    18    19    1
    14     6     7   ar
    15     7    20    1
    16    20    21    1
    17     5     8    1
    18     8     9    1
    19     9    24    1
    20    24    25    1
    21    25    26    2
    22    25    27   am
    23    27    28    1
    24    28    29    1
    25    29    30    1
    26    30    31    1
    27    31    32    1
    28     9    10   am
    29    10    11    2
    30     7     2   ar
    31    32    27    1
    32    10     4    1
    33    18    12   ar
    34    21    22    1
    35    21    23    1
@<TRIPOS>MOLECULE
*****
 32 35 0 0 0
SMALL
GASTEIGER

@<TRIPOS>ATOM
      1 C          63.7386   83.6010   15.0311 C.3     1  UNL1        0.0518
      2 C          63.5608   84.8179   14.1722 C.ar    1  UNL1        0.0568
      3 N          63.8512   86.1792   14.7312 N.ar    1  UNL1       -0.2456
      4 C          63.6735   87.3962   13.8725 C.ar    1  UNL1        0.1319
      5 C          63.2053   87.2518   12.4548 C.ar    1  UNL1        0.0196
      6 C          62.9149   85.8905   11.8957 C.ar    1  UNL1       -0.0015
      7 C          63.0927   84.6736   12.7546 C.ar    1  UNL1        0.0068
      8 C          63.1225   88.6229   11.8520 C.3     1  UNL1        0.1226
      9 N          63.5395   89.6146   12.8973 N.am    1  UNL1       -0.2623
     10 C          63.8800   88.8565   14.1460 C.2     1  UNL1        0.2671
     11 O          64.3453   89.4538   15.4409 O.2     1  UNL1       -0.2682
     12 C          62.4468   85.7461   10.4780 C.ar    1  UNL1        0.0102
     13 C          63.2834   84.9954    9.4847 C.ar    1  UNL1        0.0017
     14 C          62.8154   84.8509    8.0670 C.ar    1  UNL1        0.0114
     15 C          61.5107   85.4571    7.6425 C.ar    1  UNL1        0.0585
     16 CL         61.0426   85.3126    6.2248 Cl      1  UNL1       -0.0822
     17 C          60.6740   86.2078    8.6358 C.ar    1  UNL1        0.0228
     18 C          61.1421   86.3523   10.0535 C.ar    1  UNL1        0.0585
     19 CL         60.3054   87.1029   11.0468 Cl      1  UNL1       -0.0822
     20 C          62.8023   83.3122   12.1955 C.3     1  UNL1        0.0934
     21 N          63.9303   82.4209   11.7675 N.3     1  UNL1       -0.3174
     22 H          64.4067   82.8362   10.9668 H       1  UNL1        0.1192
     23 H          63.5611   81.5066   11.5067 H       1  UNL1        0.1192
     24 C          63.6045   91.1032   12.7243 C.3     1  UNL1        0.1798
     25 C          64.9303   91.7792   12.5363 C.2     1  UNL1        0.2461
     26 O          65.4746   91.9917   11.1549 O.2     1  UNL1       -0.2730
     27 N          65.7118   92.2427   13.7299 N.am    1  UNL1       -0.2730
     28 C          65.1674   92.0302   15.1113 C.3     1  UNL1        0.1255
     29 C          65.9489   92.4937   16.3049 C.3     1  UNL1        0.1636
     30 O          67.2746   93.1697   16.1169 O.3     1  UNL1       -0.3501
     31 C          67.8190   93.3822   14.7354 C.3     1  UNL1        0.1636
     32 C          67.0375   92.9187   13.5418 C.3     1  UNL1        0.1255
@<TRIPOS>BOND
     1     1     2    1
     2     2     3   ar
     3     3     4   ar
     4     4     5   ar
     5     5     6   ar
     6     6    12    1
     7    12    13   ar
     8    13    14   ar
     9    14    15   ar
    10    15    16    1
    11    15    17   ar
    12    17    18   ar
    13    18    19    1
    14     6     7   ar
    15     7    20    1
    16    20    21    1
    17     5     8    1
    18     8     9    1
    19     9    24    1
    20    24    25    1
    21    25    26    2
    22    25    27   am
    23    27    28    1
    24    28    29    1
    25    29    30    1
    26    30    31    1
    27    31    32    1
    28     9    10   am
    29    10    11    2
    30     7     2   ar
    31    32    27    1
    32    10     4    1
    33    18    12   ar
    34    21    22    1
    35    21    23    1
@<TRIPOS>MOLECULE
*****
 32 35 0 0 0
SMALL
GASTEIGER

@<TRIPOS>ATOM
      1 C          59.9498   89.3328    8.2285 C.3     1  UNL1        0.0518
      2 C          60.8504   88.8683    9.3346 C.ar    1  UNL1        0.0568
      3 N          61.4057   89.8583   10.3152 N.ar    1  UNL1       -0.2456
      4 C          62.3064   89.3939   11.4212 C.ar    1  UNL1        0.1319
      5 C          62.6517   87.9396   11.5465 C.ar    1  UNL1        0.0196
      6 C          62.0964   86.9496   10.5659 C.ar    1  UNL1       -0.0015
      7 C          61.1957   87.4141    9.4599 C.ar    1  UNL1        0.0068
      8 C          63.5578   87.7787   12.7310 C.3     1  UNL1        0.1226
      9 N          63.7725   89.1336   13.3377 N.am    1  UNL1       -0.2623
     10 C          62.9991   90.1319   12.5282 C.2     1  UNL1        0.2671
     11 O          62.9305   91.6087   12.7813 O.2     1  UNL1       -0.2682
     12 C          62.4417   85.4952   10.6912 C.ar    1  UNL1        0.0102
     13 C          62.0776   84.7426   11.9366 C.ar    1  UNL1        0.0017
     14 C          62.4228   83.2883   12.0620 C.ar    1  UNL1        0.0114
     15 C          63.1321   82.5866   10.9419 C.ar    1  UNL1        0.0585
     16 CL         63.4773   81.1323   11.0673 Cl      1  UNL1       -0.0822
     17 C          63.4962   83.3393    9.6966 C.ar    1  UNL1        0.0228
     18 C          63.1510   84.7936    9.5712 C.ar    1  UNL1        0.0585
     19 CL         63.5151   85.5462    8.3258 Cl      1  UNL1       -0.0822
     20 C          60.6404   86.4241    8.4792 C.3     1  UNL1        0.0934
     21 N          59.1640   86.3739    8.2187 N.3     1  UNL1       -0.3174
     22 H          58.6801   86.0678    9.0628 H       1  UNL1        0.1192
     23 H          58.9746   85.7176    7.4612 H       1  UNL1        0.1192
     24 C          64.6131   89.4370   14.5424 C.3     1  UNL1        0.1798
     25 C          64.7005   90.8416   15.0615 C.2     1  UNL1        0.2461
     26 O          63.5319   91.4503   15.7783 O.2     1  UNL1       -0.2730
     27 N          65.9564   91.6376   14.8638 N.am    1  UNL1       -0.2730
     28 C          67.1251   91.0290   14.1470 C.3     1  UNL1        0.1255
     29 C          68.3810   91.8249   13.9493 C.3     1  UNL1        0.1636
     30 O          68.4683   93.2294   14.4684 O.3     1  UNL1       -0.3501
     31 C          67.2997   93.8381   15.1852 C.3     1  UNL1        0.1636
     32 C          66.0437   93.0422   15.3830 C.3     1  UNL1        0.1255
@<TRIPOS>BOND
     1     1     2    1
     2     2     3   ar
     3     3     4   ar
     4     4     5   ar
     5     5     6   ar
     6     6    12    1
     7    12    13   ar
     8    13    14   ar
     9    14    15   ar
    10    15    16    1
    11    15    17   ar
    12    17    18   ar
    13    18    19    1
    14     6     7   ar
    15     7    20    1
    16    20    21    1
    17     5     8    1
    18     8     9    1
    19     9    24    1
    20    24    25    1
    21    25    26    2
    22    25    27   am
    23    27    28    1
    24    28    29    1
    25    29    30    1
    26    30    31    1
    27    31    32    1
    28     9    10   am
    29    10    11    2
    30     7     2   ar
    31    32    27    1
    32    10     4    1
    33    18    12   ar
    34    21    22    1
    35    21    23    1
@<TRIPOS>MOLECULE
*****
 32 35 0 0 0
SMALL
GASTEIGER

@<TRIPOS>ATOM
      1 C          63.1598   83.0212   15.0791 C.3     1  UNL1        0.0518
      2 C          63.1781   84.2824   14.2671 C.ar    1  UNL1        0.0568
      3 N          63.5580   85.5831   14.9106 N.ar    1  UNL1       -0.2456
      4 C          63.5764   86.8442   14.0988 C.ar    1  UNL1        0.1319
      5 C          63.2148   86.8048   12.6435 C.ar    1  UNL1        0.0196
      6 C          62.8349   85.5042   12.0001 C.ar    1  UNL1       -0.0015
      7 C          62.8165   84.2430   12.8120 C.ar    1  UNL1        0.0068
      8 C          63.3218   88.1993   12.1013 C.3     1  UNL1        0.1226
      9 N          63.7495   89.1006   13.2215 N.am    1  UNL1       -0.2623
     10 C          63.9068   88.2631   14.4560 C.2     1  UNL1        0.2671
     11 O          64.3218   88.7577   15.8099 O.2     1  UNL1       -0.2682
     12 C          62.4733   85.4647   10.5448 C.ar    1  UNL1        0.0102
     13 C          63.3367   84.7101    9.5778 C.ar    1  UNL1        0.0017
     14 C          62.9752   84.6705    8.1225 C.ar    1  UNL1        0.0114
     15 C          61.7503   85.3855    7.6344 C.ar    1  UNL1        0.0585
     16 CL         61.3888   85.3459    6.1792 Cl      1  UNL1       -0.0822
     17 C          60.8869   86.1400    8.6014 C.ar    1  UNL1        0.0228
     18 C          61.2484   86.1796   10.0567 C.ar    1  UNL1        0.0585
     19 CL         60.3850   86.9342   11.0237 Cl      1  UNL1       -0.0822
     20 C          62.4366   82.9423   12.1686 C.3     1  UNL1        0.0934
     21 N          63.5008   81.9614   11.7744 N.3     1  UNL1       -0.3174
     22 H          64.0715   82.3603   11.0290 H       1  UNL1        0.1192
     23 H          63.0644   81.1004   11.4448 H       1  UNL1        0.1192
     24 C          63.9794   90.5796   13.1243 C.3     1  UNL1        0.1798
     25 C          64.4168   91.3517   14.3336 C.2     1  UNL1        0.2461
     26 O          63.4484   91.6088   15.4499 O.2     1  UNL1       -0.2730
     27 N          65.8225   91.8669   14.4268 N.am    1  UNL1       -0.2730
     28 C          66.7909   91.6098   13.3104 C.3     1  UNL1        0.1255
     29 C          68.1966   92.1249   13.4035 C.3     1  UNL1        0.1636
     30 O          68.6338   92.8970   14.6129 O.3     1  UNL1       -0.3501
     31 C          67.6655   93.1540   15.7292 C.3     1  UNL1        0.1636
     32 C          66.2597   92.6390   15.6361 C.3     1  UNL1        0.1255
@<TRIPOS>BOND
     1     1     2    1
     2     2     3   ar
     3     3     4   ar
     4     4     5   ar
     5     5     6   ar
     6     6    12    1
     7    12    13   ar
     8    13    14   ar
     9    14    15   ar
    10    15    16    1
    11    15    17   ar
    12    17    18   ar
    13    18    19    1
    14     6     7   ar
    15     7    20    1
    16    20    21    1
    17     5     8    1
    18     8     9    1
    19     9    24    1
    20    24    25    1
    21    25    26    2
    22    25    27   am
    23    27    28    1
    24    28    29    1
    25    29    30    1
    26    30    31    1
    27    31    32    1
    28     9    10   am
    29    10    11    2
    30     7     2   ar
    31    32    27    1
    32    10     4    1
    33    18    12   ar
    34    21    22    1
    35    21    23    1
@<TRIPOS>MOLECULE
*****
 32 35 0 0 0
SMALL
GASTEIGER

@<TRIPOS>ATOM
      1 C          63.8665   83.4995   15.1445 C.3     1  UNL1        0.0518
      2 C          63.6518   84.7003   14.2714 C.ar    1  UNL1        0.0568
      3 N          63.8744   86.0776   14.8224 N.ar    1  UNL1       -0.2456
      4 C          63.6598   87.2783   13.9494 C.ar    1  UNL1        0.1319
      5 C          63.2226   87.1018   12.5255 C.ar    1  UNL1        0.0196
      6 C          63.0000   85.7246   11.9745 C.ar    1  UNL1       -0.0015
      7 C          63.2146   84.5238   12.8476 C.ar    1  UNL1        0.0068
      8 C          63.0918   88.4628   11.9086 C.3     1  UNL1        0.1226
      9 N          63.4482   89.4805   12.9513 N.am    1  UNL1       -0.2623
     10 C          63.7993   88.7484   14.2126 C.2     1  UNL1        0.2671
     11 O          64.2165   89.3763   15.5094 O.2     1  UNL1       -0.2682
     12 C          62.5627   85.5480   10.5505 C.ar    1  UNL1        0.0102
     13 C          63.4158   84.7668    9.5954 C.ar    1  UNL1        0.0017
     14 C          62.9786   84.5902    8.1715 C.ar    1  UNL1        0.0114
     15 C          61.6884   85.1947    7.7026 C.ar    1  UNL1        0.0585
     16 CL         61.2512   85.0180    6.2787 Cl      1  UNL1       -0.0822
     17 C          60.8353   85.9758    8.6577 C.ar    1  UNL1        0.0228
     18 C          61.2725   86.1525   10.0817 C.ar    1  UNL1        0.0585
     19 CL         60.4194   86.9336   11.0367 Cl      1  UNL1       -0.0822
     20 C          62.9920   83.1464   12.2966 C.3     1  UNL1        0.0934
     21 N          64.1654   82.2782   11.9511 N.3     1  UNL1       -0.3174
     22 H          64.6776   82.6927   11.1726 H       1  UNL1        0.1192
     23 H          63.8352   81.3504   11.6853 H       1  UNL1        0.1192
     24 C          63.4528   90.9689   12.7654 C.3     1  UNL1        0.1798
     25 C          63.9103   91.5610   11.4654 C.2     1  UNL1        0.2461
     26 O          63.2851   91.1149   10.1769 O.2     1  UNL1       -0.2730
     27 N          64.9930   92.5991   11.4537 N.am    1  UNL1       -0.2730
     28 C          65.6182   93.0451   12.7422 C.3     1  UNL1        0.1255
     29 C          66.7009   94.0832   12.7306 C.3     1  UNL1        0.1636
     30 O          67.1584   94.6752   11.4305 O.3     1  UNL1       -0.3501
     31 C          66.5332   94.2291   10.1420 C.3     1  UNL1        0.1636
     32 C          65.4505   93.1911   10.1536 C.3     1  UNL1        0.1255
@<TRIPOS>BOND
     1     1     2    1
     2     2     3   ar
     3     3     4   ar
     4     4     5   ar
     5     5     6   ar
     6     6    12    1
     7    12    13   ar
     8    13    14   ar
     9    14    15   ar
    10    15    16    1
    11    15    17   ar
    12    17    18   ar
    13    18    19    1
    14     6     7   ar
    15     7    20    1
    16    20    21    1
    17     5     8    1
    18     8     9    1
    19     9    24    1
    20    24    25    1
    21    25    26    2
    22    25    27   am
    23    27    28    1
    24    28    29    1
    25    29    30    1
    26    30    31    1
    27    31    32    1
    28     9    10   am
    29    10    11    2
    30     7     2   ar
    31    32    27    1
    32    10     4    1
    33    18    12   ar
    34    21    22    1
    35    21    23    1
@<TRIPOS>MOLECULE
*****
 32 35 0 0 0
SMALL
GASTEIGER

@<TRIPOS>ATOM
      1 C          59.0210   88.0921    7.3702 C.3     1  UNL1        0.0518
      2 C          60.0218   88.0572    8.4871 C.ar    1  UNL1        0.0568
      3 N          60.3795   89.3201    9.2132 N.ar    1  UNL1       -0.2456
      4 C          61.3802   89.2853   10.3300 C.ar    1  UNL1        0.1319
      5 C          62.0232   87.9876   10.7207 C.ar    1  UNL1        0.0196
      6 C          61.6655   86.7248    9.9947 C.ar    1  UNL1       -0.0015
      7 C          60.6647   86.7596    8.8778 C.ar    1  UNL1        0.0068
      8 C          62.9679   88.2609   11.8534 C.3     1  UNL1        0.1226
      9 N          62.9087   89.7275   12.1627 N.am    1  UNL1       -0.2623
     10 C          61.9275   90.3606   11.2212 C.2     1  UNL1        0.2671
     11 O          61.5584   91.8138   11.1784 O.2     1  UNL1       -0.2682
     12 C          62.3085   85.4270   10.3853 C.ar    1  UNL1        0.0102
     13 C          62.0008   84.8086   11.7168 C.ar    1  UNL1        0.0017
     14 C          62.6437   83.5109   12.1076 C.ar    1  UNL1        0.0114
     15 C          63.5942   82.8317   11.1668 C.ar    1  UNL1        0.0585
     16 CL         64.2371   81.5340   11.5576 Cl      1  UNL1       -0.0822
     17 C          63.9019   83.4502    9.8353 C.ar    1  UNL1        0.0228
     18 C          63.2590   84.7479    9.4446 C.ar    1  UNL1        0.0585
     19 CL         63.5667   85.3663    8.1131 Cl      1  UNL1       -0.0822
     20 C          60.3069   85.4967    8.1516 C.3     1  UNL1        0.0934
     21 N          60.6754   85.3321    6.7070 N.3     1  UNL1       -0.3174
     22 H          60.1553   86.0056    6.1446 H       1  UNL1        0.1192
     23 H          60.4456   84.3859    6.4031 H       1  UNL1        0.1192
     24 C          63.6930   90.4365   13.2267 C.3     1  UNL1        0.1798
     25 C          64.7068   91.4741   12.8453 C.2     1  UNL1        0.2461
     26 O          64.8920   91.8477   11.4044 O.2     1  UNL1       -0.2730
     27 N          65.5356   92.1382   13.9047 N.am    1  UNL1       -0.2730
     28 C          65.3505   91.7646   15.3455 C.3     1  UNL1        0.1255
     29 C          66.1791   92.4286   16.4050 C.3     1  UNL1        0.1636
     30 O          67.1929   93.4662   16.0234 O.3     1  UNL1       -0.3501
     31 C          67.3781   93.8398   14.5826 C.3     1  UNL1        0.1636
     32 C          66.5494   93.1758   13.5231 C.3     1  UNL1        0.1255
@<TRIPOS>BOND
     1     1     2    1
     2     2     3   ar
     3     3     4   ar
     4     4     5   ar
     5     5     6   ar
     6     6    12    1
     7    12    13   ar
     8    13    14   ar
     9    14    15   ar
    10    15    16    1
    11    15    17   ar
    12    17    18   ar
    13    18    19    1
    14     6     7   ar
    15     7    20    1
    16    20    21    1
    17     5     8    1
    18     8     9    1
    19     9    24    1
    20    24    25    1
    21    25    26    2
    22    25    27   am
    23    27    28    1
    24    28    29    1
    25    29    30    1
    26    30    31    1
    27    31    32    1
    28     9    10   am
    29    10    11    2
    30     7     2   ar
    31    32    27    1
    32    10     4    1
    33    18    12   ar
    34    21    22    1
    35    21    23    1
@<TRIPOS>MOLECULE
*****
 32 35 0 0 0
SMALL
GASTEIGER

@<TRIPOS>ATOM
      1 C          64.3551   90.8362   13.5604 C.3     1  UNL1        0.0518
      2 C          63.8921   89.4205   13.3825 C.ar    1  UNL1        0.0568
      3 N          64.1901   88.3959   14.4367 N.ar    1  UNL1       -0.2456
      4 C          63.7271   86.9803   14.2589 C.ar    1  UNL1        0.1319
      5 C          62.9661   86.5893   13.0268 C.ar    1  UNL1        0.0196
      6 C          62.6681   87.6139   11.9726 C.ar    1  UNL1       -0.0015
      7 C          63.1311   89.0295   12.1505 C.ar    1  UNL1        0.0068
      8 C          62.6403   85.1285   13.1273 C.3     1  UNL1        0.1226
      9 N          63.2000   84.6168   14.4214 N.am    1  UNL1       -0.2623
     10 C          63.8717   85.7612   15.1208 C.2     1  UNL1        0.2671
     11 O          64.5660   85.6977   16.4489 O.2     1  UNL1       -0.2682
     12 C          61.9070   87.2229   10.7405 C.ar    1  UNL1        0.0102
     13 C          62.5923   86.4586    9.6468 C.ar    1  UNL1        0.0017
     14 C          61.8314   86.0676    8.4146 C.ar    1  UNL1        0.0114
     15 C          60.3852   86.4410    8.2763 C.ar    1  UNL1        0.0585
     16 CL         59.6243   86.0500    7.0442 Cl      1  UNL1       -0.0822
     17 C          59.7000   87.2053    9.3701 C.ar    1  UNL1        0.0228
     18 C          60.4609   87.5962   10.6022 C.ar    1  UNL1        0.0585
     19 CL         59.7756   88.3606   11.6959 Cl      1  UNL1       -0.0822
     20 C          62.8331   90.0542   11.0963 C.3     1  UNL1        0.0934
     21 N          61.6698   90.9862   11.2638 N.3     1  UNL1       -0.3174
     22 H          60.8004   90.4536   11.2348 H       1  UNL1        0.1192
     23 H          61.6731   91.6731   10.5098 H       1  UNL1        0.1192
     24 C          63.1048   83.2079   14.9274 C.3     1  UNL1        0.1798
     25 C          62.5989   82.1202   14.0269 C.2     1  UNL1        0.2461
     26 O          61.5399   81.1757   14.5134 O.2     1  UNL1       -0.2730
     27 N          63.1518   81.9769   12.6399 N.am    1  UNL1       -0.2730
     28 C          64.2107   82.9213   12.1534 C.3     1  UNL1        0.1255
     29 C          64.7637   82.7780   10.7664 C.3     1  UNL1        0.1636
     30 O          64.2577   81.6903    9.8660 O.3     1  UNL1       -0.3501
     31 C          63.1988   80.7459   10.3525 C.3     1  UNL1        0.1636
     32 C          62.6458   80.8891   11.7395 C.3     1  UNL1        0.1255
@<TRIPOS>BOND
     1     1     2    1
     2     2     3   ar
     3     3     4   ar
     4     4     5   ar
     5     5     6   ar
     6     6    12    1
     7    12    13   ar
     8    13    14   ar
     9    14    15   ar
    10    15    16    1
    11    15    17   ar
    12    17    18   ar
    13    18    19    1
    14     6     7   ar
    15     7    20    1
    16    20    21    1
    17     5     8    1
    18     8     9    1
    19     9    24    1
    20    24    25    1
    21    25    26    2
    22    25    27   am
    23    27    28    1
    24    28    29    1
    25    29    30    1
    26    30    31    1
    27    31    32    1
    28     9    10   am
    29    10    11    2
    30     7     2   ar
    31    32    27    1
    32    10     4    1
    33    18    12   ar
    34    21    22    1
    35    21    23    1
@<TRIPOS>MOLECULE
*****
 32 35 0 0 0
SMALL
GASTEIGER

@<TRIPOS>ATOM
      1 C          63.9813   84.9119   15.2503 C.3     1  UNL1        0.0518
      2 C          63.7767   86.0837   14.3365 C.ar    1  UNL1        0.0568
      3 N          64.3817   87.4137   14.6756 N.ar    1  UNL1       -0.2456
      4 C          64.1771   88.5856   13.7618 C.ar    1  UNL1        0.1319
      5 C          63.3676   88.4274   12.5089 C.ar    1  UNL1        0.0196
      6 C          62.7626   87.0973   12.1698 C.ar    1  UNL1       -0.0015
      7 C          62.9672   85.9255   13.0837 C.ar    1  UNL1        0.0068
      8 C          63.3373   89.7522   11.8062 C.3     1  UNL1        0.1226
      9 N          64.1281   90.7292   12.6248 N.am    1  UNL1       -0.2623
     10 C          64.6471   90.0082   13.8334 C.2     1  UNL1        0.2671
     11 O          65.4885   90.6051   14.9224 O.2     1  UNL1       -0.2682
     12 C          61.9531   86.9390   10.9170 C.ar    1  UNL1        0.0102
     13 C          62.5064   86.1614    9.7598 C.ar    1  UNL1        0.0017
     14 C          61.6970   86.0030    8.5069 C.ar    1  UNL1        0.0114
     15 C          60.3342   86.6224    8.4113 C.ar    1  UNL1        0.0585
     16 CL         59.5247   86.4640    7.1584 Cl      1  UNL1       -0.0822
     17 C          59.7808   87.4000    9.5684 C.ar    1  UNL1        0.0228
     18 C          60.5903   87.5584   10.8213 C.ar    1  UNL1        0.0585
     19 CL         60.0369   88.3360   11.9785 Cl      1  UNL1       -0.0822
     20 C          62.3622   84.5954   12.7446 C.3     1  UNL1        0.0934
     21 N          63.1893   83.5479   12.0600 N.3     1  UNL1       -0.3174
     22 H          63.4351   83.8674   11.1231 H       1  UNL1        0.1192
     23 H          62.6547   82.6817   11.9945 H       1  UNL1        0.1192
     24 C          64.3593   92.1737   12.2930 C.3     1  UNL1        0.1798
     25 C          64.9620   92.5528   10.9728 C.2     1  UNL1        0.2461
     26 O          64.8380   91.6279    9.7985 O.2     1  UNL1       -0.2730
     27 N          65.6888   93.8569   10.8269 N.am    1  UNL1       -0.2730
     28 C          65.8128   94.7818   12.0012 C.3     1  UNL1        0.1255
     29 C          66.5395   96.0859   11.8553 C.3     1  UNL1        0.1636
     30 O          67.1422   96.4650   10.5351 O.3     1  UNL1       -0.3501
     31 C          67.0182   95.5400    9.3608 C.3     1  UNL1        0.1636
     32 C          66.2915   94.2359    9.5066 C.3     1  UNL1        0.1255
@<TRIPOS>BOND
     1     1     2    1
     2     2     3   ar
     3     3     4   ar
     4     4     5   ar
     5     5     6   ar
     6     6    12    1
     7    12    13   ar
     8    13    14   ar
     9    14    15   ar
    10    15    16    1
    11    15    17   ar
    12    17    18   ar
    13    18    19    1
    14     6     7   ar
    15     7    20    1
    16    20    21    1
    17     5     8    1
    18     8     9    1
    19     9    24    1
    20    24    25    1
    21    25    26    2
    22    25    27   am
    23    27    28    1
    24    28    29    1
    25    29    30    1
    26    30    31    1
    27    31    32    1
    28     9    10   am
    29    10    11    2
    30     7     2   ar
    31    32    27    1
    32    10     4    1
    33    18    12   ar
    34    21    22    1
    35    21    23    1
@<TRIPOS>MOLECULE
*****
 32 35 0 0 0
SMALL
GASTEIGER

@<TRIPOS>ATOM
      1 C          62.8310   80.9768   14.5524 C.3     1  UNL1        0.0518
      2 C          62.9821   82.4122   14.1436 C.ar    1  UNL1        0.0568
      3 N          63.4293   83.4343   15.1461 N.ar    1  UNL1       -0.2456
      4 C          63.5804   84.8696   14.7374 C.ar    1  UNL1        0.1319
      5 C          63.2843   85.2828   13.3262 C.ar    1  UNL1        0.0196
      6 C          62.8371   84.2606   12.3236 C.ar    1  UNL1       -0.0015
      7 C          62.6860   82.8252   12.7324 C.ar    1  UNL1        0.0068
      8 C          63.5213   86.7598   13.2161 C.3     1  UNL1        0.1226
      9 N          63.9639   87.2596   14.5594 N.am    1  UNL1       -0.2623
     10 C          64.0004   86.0914   15.4996 C.2     1  UNL1        0.2671
     11 O          64.3888   86.1370   16.9477 O.2     1  UNL1       -0.2682
     12 C          62.5409   84.6736   10.9123 C.ar    1  UNL1        0.0102
     13 C          61.3580   85.5482   10.6194 C.ar    1  UNL1        0.0017
     14 C          61.0618   85.9613    9.2082 C.ar    1  UNL1        0.0114
     15 C          61.9486   85.4998    8.0899 C.ar    1  UNL1        0.0585
     16 CL         61.6523   85.9129    6.6786 Cl      1  UNL1       -0.0822
     17 C          63.1315   84.6252    8.3828 C.ar    1  UNL1        0.0228
     18 C          63.4277   84.2121    9.7940 C.ar    1  UNL1        0.0585
     19 CL         64.6106   83.3375   10.0869 Cl      1  UNL1       -0.0822
     20 C          62.2388   81.8030   11.7298 C.3     1  UNL1        0.0934
     21 N          63.1762   80.7137   11.3002 N.3     1  UNL1       -0.3174
     22 H          63.9601   81.1212   10.7904 H       1  UNL1        0.1192
     23 H          62.6813   80.0581   10.6954 H       1  UNL1        0.1192
     24 C          64.3093   88.6784   14.9023 C.3     1  UNL1        0.1798
     25 C          64.0489   89.7741   13.9115 C.2     1  UNL1        0.2461
     26 O          62.7737   89.7837   13.1218 O.2     1  UNL1       -0.2730
     27 N          65.0637   90.8603   13.7104 N.am    1  UNL1       -0.2730
     28 C          66.3389   90.8508   14.5002 C.3     1  UNL1        0.1255
     29 C          67.3538   91.9369   14.2992 C.3     1  UNL1        0.1636
     30 O          67.0933   93.0326   13.3084 O.3     1  UNL1       -0.3501
     31 C          65.8181   93.0421   12.5187 C.3     1  UNL1        0.1636
     32 C          64.8033   91.9560   12.7197 C.3     1  UNL1        0.1255
@<TRIPOS>BOND
     1     1     2    1
     2     2     3   ar
     3     3     4   ar
     4     4     5   ar
     5     5     6   ar
     6     6    12    1
     7    12    13   ar
     8    13    14   ar
     9    14    15   ar
    10    15    16    1
    11    15    17   ar
    12    17    18   ar
    13    18    19    1
    14     6     7   ar
    15     7    20    1
    16    20    21    1
    17     5     8    1
    18     8     9    1
    19     9    24    1
    20    24    25    1
    21    25    26    2
    22    25    27   am
    23    27    28    1
    24    28    29    1
    25    29    30    1
    26    30    31    1
    27    31    32    1
    28     9    10   am
    29    10    11    2
    30     7     2   ar
    31    32    27    1
    32    10     4    1
    33    18    12   ar
    34    21    22    1
    35    21    23    1
