@<TRIPOS>MOLECULE
*****
 30 33 0 0 0
SMALL
GASTEIGER

@<TRIPOS>ATOM
      1 O          63.0486   88.1715   12.0309 O.3     1  UNL1       -0.3822
      2 C          61.9731   88.3891   11.0082 C.3     1  UNL1        0.1164
      3 C          61.0345   88.1174    9.8701 C.3     1  UNL1        0.0487
      4 C          60.0754   89.1789    9.4193 C.3     1  UNL1        0.0714
      5 N          60.0548   90.5121   10.1065 N.3     1  UNL1       -0.2969
      6 C          60.9934   90.7838   11.2445 C.3     1  UNL1        0.0790
      7 C          61.9526   89.7223   11.6954 C.3     1  UNL1        0.1048
      8 H          63.4088   87.2759   11.9359 H       1  UNL1        0.2107
      9 H          59.1096   90.6431   10.4667 H       1  UNL1        0.1233
     10 C          62.3672   86.9803   10.6762 C.ar    1  UNL1        0.0046
     11 C          62.5746   85.9808   11.7751 C.ar    1  UNL1        0.0004
     12 C          62.9686   84.5721   11.4431 C.ar    1  UNL1        0.0317
     13 C          63.1553   84.1630   10.0121 C.ar    1  UNL1        0.1674
     14 F          63.5494   82.7542    9.6801 F       1  UNL1       -0.2018
     15 C          62.9479   85.1625    8.9131 C.ar    1  UNL1        0.1671
     16 F          63.1346   84.7534    7.4821 F       1  UNL1       -0.2018
     17 C          62.5539   86.5712    9.2452 C.ar    1  UNL1        0.0299
     18 C          62.8913   89.9939   12.8334 C.ar    1  UNL1        0.1640
     19 O          62.7826   89.4311   14.2196 O.2     1  UNL1       -0.3571
     20 N          63.9276   89.9655   15.0278 N.ar    1  UNL1       -0.0768
     21 C          64.7440   90.8585   14.1413 C.ar    1  UNL1        0.1296
     22 C          64.1035   90.8761   12.7850 C.ar    1  UNL1        0.0883
     23 BR         64.5898   91.6414   11.5901 Br      1  UNL1       -0.0444
     24 C          65.9833   91.6032   14.5408 C.ar    1  UNL1        0.0320
     25 C          67.1950   91.5714   13.6573 C.ar    1  UNL1        0.0025
     26 C          68.4343   92.3160   14.0567 C.ar    1  UNL1        0.0001
     27 C          68.4618   93.0926   15.3399 C.ar    1  UNL1        0.0009
     28 C          67.2500   93.1244   16.2234 C.ar    1  UNL1        0.0114
     29 C          66.0108   92.3797   15.8239 C.ar    1  UNL1        0.0592
     30 CL         64.7990   92.4115   16.7074 Cl      1  UNL1       -0.0822
@<TRIPOS>BOND
     1     2     1    1
     2     2    10    1
     3    10    11   ar
     4    11    12   ar
     5    12    13   ar
     6    13    14    1
     7    13    15   ar
     8    15    16    1
     9    15    17   ar
    10     2     3    1
    11     3     4    1
    12     4     5    1
    13     5     6    1
    14     6     7    1
    15     7    18    1
    16    18    19   ar
    17    19    20   ar
    18    20    21   ar
    19    21    24    1
    20    24    25   ar
    21    25    26   ar
    22    26    27   ar
    23    27    28   ar
    24    28    29   ar
    25    29    30    1
    26    21    22   ar
    27    22    23    1
    28     7     2    1
    29    22    18   ar
    30    17    10   ar
    31    29    24   ar
    32     1     8    1
    33     5     9    1
@<TRIPOS>MOLECULE
*****
 30 33 0 0 0
SMALL
GASTEIGER

@<TRIPOS>ATOM
      1 O          64.0281   88.8809   13.1645 O.3     1  UNL1       -0.3822
      2 C          63.4654   89.8149   12.1343 C.3     1  UNL1        0.1164
      3 C          63.2031   91.0797   11.3719 C.3     1  UNL1        0.0487
      4 C          62.2713   91.0674   10.1965 C.3     1  UNL1        0.0714
      5 N          61.6018   89.7902    9.7835 N.3     1  UNL1       -0.2969
      6 C          61.8641   88.5253   10.5460 C.3     1  UNL1        0.0790
      7 C          62.7959   88.5377   11.7214 C.3     1  UNL1        0.1048
      8 H          64.6244   89.3699   13.7529 H       1  UNL1        0.2107
      9 H          61.8754   89.6134    8.8170 H       1  UNL1        0.1233
     10 C          64.3304   90.7678   12.9051 C.ar    1  UNL1        0.0046
     11 C          64.5408   90.5671   14.3766 C.ar    1  UNL1        0.0004
     12 C          65.4057   91.5200   15.1473 C.ar    1  UNL1        0.0317
     13 C          66.0602   92.6734   14.4464 C.ar    1  UNL1        0.1674
     14 F          66.9252   93.6263   15.2172 F       1  UNL1       -0.2018
     15 C          65.8498   92.8740   12.9749 C.ar    1  UNL1        0.1671
     16 F          66.5043   94.0275   12.2740 F       1  UNL1       -0.2018
     17 C          64.9849   91.9212   12.2042 C.ar    1  UNL1        0.0299
     18 C          63.0582   87.2729   12.4839 C.ar    1  UNL1        0.1640
     19 O          63.8195   87.1613   13.7715 O.2     1  UNL1       -0.3571
     20 N          63.8371   85.7170   14.1760 N.ar    1  UNL1       -0.0768
     21 C          63.0867   84.9358   13.1383 C.ar    1  UNL1        0.1296
     22 C          62.6054   85.8974   12.0925 C.ar    1  UNL1        0.0883
     23 BR         61.8107   85.5454   10.8700 Br      1  UNL1       -0.0444
     24 C          62.8579   83.4534   13.1452 C.ar    1  UNL1        0.0320
     25 C          61.9299   82.8424   14.1529 C.ar    1  UNL1        0.0025
     26 C          61.7011   81.3600   14.1597 C.ar    1  UNL1        0.0001
     27 C          62.4003   80.4885   13.1588 C.ar    1  UNL1        0.0009
     28 C          63.3283   81.0996   12.1510 C.ar    1  UNL1        0.0114
     29 C          63.5571   82.5820   12.1443 C.ar    1  UNL1        0.0592
     30 CL         64.4851   83.1930   11.1365 Cl      1  UNL1       -0.0822
@<TRIPOS>BOND
     1     2     1    1
     2     2    10    1
     3    10    11   ar
     4    11    12   ar
     5    12    13   ar
     6    13    14    1
     7    13    15   ar
     8    15    16    1
     9    15    17   ar
    10     2     3    1
    11     3     4    1
    12     4     5    1
    13     5     6    1
    14     6     7    1
    15     7    18    1
    16    18    19   ar
    17    19    20   ar
    18    20    21   ar
    19    21    24    1
    20    24    25   ar
    21    25    26   ar
    22    26    27   ar
    23    27    28   ar
    24    28    29   ar
    25    29    30    1
    26    21    22   ar
    27    22    23    1
    28     7     2    1
    29    22    18   ar
    30    17    10   ar
    31    29    24   ar
    32     1     8    1
    33     5     9    1
@<TRIPOS>MOLECULE
*****
 30 33 0 0 0
SMALL
GASTEIGER

@<TRIPOS>ATOM
      1 O          62.5241   87.6589   11.2225 O.3     1  UNL1       -0.3822
      2 C          61.6140   87.5074   10.0397 C.3     1  UNL1        0.1164
      3 C          60.9251   86.8843    8.8621 C.3     1  UNL1        0.0487
      4 C          59.9156   87.6718    8.0806 C.3     1  UNL1        0.0714
      5 N          59.5951   89.0827    8.4769 N.3     1  UNL1       -0.2969
      6 C          60.2841   89.7058    9.6545 C.3     1  UNL1        0.0790
      7 C          61.2935   88.9182   10.4360 C.3     1  UNL1        0.1048
      8 H          63.0165   86.8344   11.3593 H       1  UNL1        0.2107
      9 H          58.5942   89.1139    8.6708 H       1  UNL1        0.1233
     10 C          62.2506   86.1492   10.0543 C.ar    1  UNL1        0.0046
     11 C          62.8849   85.6048    8.8088 C.ar    1  UNL1        0.0004
     12 C          63.5214   84.2467    8.8234 C.ar    1  UNL1        0.0317
     13 C          63.5236   83.4329   10.0834 C.ar    1  UNL1        0.1674
     14 F          64.1602   82.0747   10.0980 F       1  UNL1       -0.2018
     15 C          62.8893   83.9773   11.3289 C.ar    1  UNL1        0.1671
     16 F          62.8915   83.1635   12.5890 F       1  UNL1       -0.2018
     17 C          62.2528   85.3354   11.3143 C.ar    1  UNL1        0.0299
     18 C          61.9825   89.5413   11.6137 C.ar    1  UNL1        0.1640
     19 O          61.6326   89.3246   13.0562 O.2     1  UNL1       -0.3571
     20 N          62.5763   90.1399   13.8896 N.ar    1  UNL1       -0.0768
     21 C          63.5095   90.8605   12.9623 C.ar    1  UNL1        0.1296
     22 C          63.1426   90.4905   11.5558 C.ar    1  UNL1        0.0883
     23 BR         63.8171   90.9833   10.3099 Br      1  UNL1       -0.0444
     24 C          64.6155   91.7882   13.3700 C.ar    1  UNL1        0.0320
     25 C          65.2913   92.6468   12.3425 C.ar    1  UNL1        0.0025
     26 C          66.3972   93.5745   12.7501 C.ar    1  UNL1        0.0001
     27 C          66.8275   93.6435   14.1855 C.ar    1  UNL1        0.0009
     28 C          66.1517   92.7848   15.2131 C.ar    1  UNL1        0.0114
     29 C          65.0457   91.8571   14.8054 C.ar    1  UNL1        0.0592
     30 CL         64.3699   90.9984   15.8330 Cl      1  UNL1       -0.0822
@<TRIPOS>BOND
     1     2     1    1
     2     2    10    1
     3    10    11   ar
     4    11    12   ar
     5    12    13   ar
     6    13    14    1
     7    13    15   ar
     8    15    16    1
     9    15    17   ar
    10     2     3    1
    11     3     4    1
    12     4     5    1
    13     5     6    1
    14     6     7    1
    15     7    18    1
    16    18    19   ar
    17    19    20   ar
    18    20    21   ar
    19    21    24    1
    20    24    25   ar
    21    25    26   ar
    22    26    27   ar
    23    27    28   ar
    24    28    29   ar
    25    29    30    1
    26    21    22   ar
    27    22    23    1
    28     7     2    1
    29    22    18   ar
    30    17    10   ar
    31    29    24   ar
    32     1     8    1
    33     5     9    1
@<TRIPOS>MOLECULE
*****
 30 33 0 0 0
SMALL
GASTEIGER

@<TRIPOS>ATOM
      1 O          64.1262   89.0527   12.9640 O.3     1  UNL1       -0.3822
      2 C          63.8331   88.9046   14.4277 C.3     1  UNL1        0.1164
      3 C          63.5582   88.2550   15.7514 C.3     1  UNL1        0.0487
      4 C          63.3326   89.1008   16.9695 C.3     1  UNL1        0.0714
      5 N          63.3819   90.5963   16.8638 N.3     1  UNL1       -0.2969
      6 C          63.6568   91.2459   15.5400 C.3     1  UNL1        0.0790
      7 C          63.8824   90.4001   14.3219 C.3     1  UNL1        0.1048
      8 H          64.1904   88.1747   12.5567 H       1  UNL1        0.2107
      9 H          64.1101   90.9129   17.5040 H       1  UNL1        0.1233
     10 C          63.8856   87.4605   14.0251 C.ar    1  UNL1        0.0046
     11 C          64.6561   86.4778   14.8560 C.ar    1  UNL1        0.0004
     12 C          64.7086   85.0338   14.4534 C.ar    1  UNL1        0.0317
     13 C          63.9905   84.5726   13.2198 C.ar    1  UNL1        0.1674
     14 F          64.0430   83.1285   12.8172 F       1  UNL1       -0.2018
     15 C          63.2200   85.5553   12.3889 C.ar    1  UNL1        0.1671
     16 F          62.5020   85.0941   11.1554 F       1  UNL1       -0.2018
     17 C          63.1675   86.9993   12.7915 C.ar    1  UNL1        0.0299
     18 C          64.1572   91.0496   12.9981 C.ar    1  UNL1        0.1640
     19 O          63.4339   90.7735   11.7133 O.2     1  UNL1       -0.3571
     20 N          64.0334   91.6426   10.6479 N.ar    1  UNL1       -0.0768
     21 C          65.1273   92.4559   11.2741 C.ar    1  UNL1        0.1296
     22 C          65.2038   92.0894   12.7266 C.ar    1  UNL1        0.0883
     23 BR         66.1591   92.6620   13.7313 Br      1  UNL1       -0.0444
     24 C          65.9927   93.4594   10.5712 C.ar    1  UNL1        0.0320
     25 C          65.5439   94.8859   10.4547 C.ar    1  UNL1        0.0025
     26 C          66.4092   95.8894    9.7519 C.ar    1  UNL1        0.0001
     27 C          67.7235   95.4664    9.1655 C.ar    1  UNL1        0.0009
     28 C          68.1724   94.0398    9.2820 C.ar    1  UNL1        0.0114
     29 C          67.3069   93.0364    9.9849 C.ar    1  UNL1        0.0592
     30 CL         67.7558   91.6098   10.1014 Cl      1  UNL1       -0.0822
@<TRIPOS>BOND
     1     2     1    1
     2     2    10    1
     3    10    11   ar
     4    11    12   ar
     5    12    13   ar
     6    13    14    1
     7    13    15   ar
     8    15    16    1
     9    15    17   ar
    10     2     3    1
    11     3     4    1
    12     4     5    1
    13     5     6    1
    14     6     7    1
    15     7    18    1
    16    18    19   ar
    17    19    20   ar
    18    20    21   ar
    19    21    24    1
    20    24    25   ar
    21    25    26   ar
    22    26    27   ar
    23    27    28   ar
    24    28    29   ar
    25    29    30    1
    26    21    22   ar
    27    22    23    1
    28     7     2    1
    29    22    18   ar
    30    17    10   ar
    31    29    24   ar
    32     1     8    1
    33     5     9    1
@<TRIPOS>MOLECULE
*****
 30 33 0 0 0
SMALL
GASTEIGER

@<TRIPOS>ATOM
      1 O          63.9893   88.6166   13.5478 O.3     1  UNL1       -0.3822
      2 C          63.5214   89.5956   12.5121 C.3     1  UNL1        0.1164
      3 C          63.3177   90.8950   11.7910 C.3     1  UNL1        0.0487
      4 C          62.5159   90.9318   10.5238 C.3     1  UNL1        0.0714
      5 N          61.9179   89.6691    9.9777 N.3     1  UNL1       -0.2969
      6 C          62.1216   88.3698   10.6988 C.3     1  UNL1        0.0790
      7 C          62.9234   88.3330   11.9660 C.3     1  UNL1        0.1048
      8 H          64.5107   89.0820   14.2205 H       1  UNL1        0.2107
      9 H          62.2955   89.5468    9.0381 H       1  UNL1        0.1233
     10 C          64.2820   90.5182   13.4179 C.ar    1  UNL1        0.0046
     11 C          65.4393   91.3086   12.8832 C.ar    1  UNL1        0.0004
     12 C          66.1998   92.2311   13.7890 C.ar    1  UNL1        0.0317
     13 C          65.8030   92.3634   15.2295 C.ar    1  UNL1        0.1674
     14 F          66.5635   93.2860   16.1353 F       1  UNL1       -0.2018
     15 C          64.6457   91.5730   15.7642 C.ar    1  UNL1        0.1671
     16 F          64.2488   91.7052   17.2047 F       1  UNL1       -0.2018
     17 C          63.8852   90.6505   14.8584 C.ar    1  UNL1        0.0299
     18 C          63.1272   87.0336   12.6872 C.ar    1  UNL1        0.1640
     19 O          63.8394   86.8532   13.9950 O.2     1  UNL1       -0.3571
     20 N          63.8069   85.3947   14.3431 N.ar    1  UNL1       -0.0768
     21 C          63.0746   84.6734   13.2507 C.ar    1  UNL1        0.1296
     22 C          62.6545   85.6864   12.2272 C.ar    1  UNL1        0.0883
     23 BR         61.8950   85.4021   10.9653 Br      1  UNL1       -0.0444
     24 C          62.8090   83.1983   13.1919 C.ar    1  UNL1        0.0320
     25 C          61.8492   82.5699   14.1582 C.ar    1  UNL1        0.0025
     26 C          61.5835   81.0949   14.0995 C.ar    1  UNL1        0.0001
     27 C          62.2778   80.2480   13.0742 C.ar    1  UNL1        0.0009
     28 C          63.2376   80.8764   12.1078 C.ar    1  UNL1        0.0114
     29 C          63.5032   82.3515   12.1667 C.ar    1  UNL1        0.0592
     30 CL         64.4631   82.9799   11.2002 Cl      1  UNL1       -0.0822
@<TRIPOS>BOND
     1     2     1    1
     2     2    10    1
     3    10    11   ar
     4    11    12   ar
     5    12    13   ar
     6    13    14    1
     7    13    15   ar
     8    15    16    1
     9    15    17   ar
    10     2     3    1
    11     3     4    1
    12     4     5    1
    13     5     6    1
    14     6     7    1
    15     7    18    1
    16    18    19   ar
    17    19    20   ar
    18    20    21   ar
    19    21    24    1
    20    24    25   ar
    21    25    26   ar
    22    26    27   ar
    23    27    28   ar
    24    28    29   ar
    25    29    30    1
    26    21    22   ar
    27    22    23    1
    28     7     2    1
    29    22    18   ar
    30    17    10   ar
    31    29    24   ar
    32     1     8    1
    33     5     9    1
@<TRIPOS>MOLECULE
*****
 30 33 0 0 0
SMALL
GASTEIGER

@<TRIPOS>ATOM
      1 O          64.0725   89.0717   12.9393 O.3     1  UNL1       -0.3822
      2 C          63.7747   88.9197   14.4016 C.3     1  UNL1        0.1164
      3 C          63.4738   88.2674   15.7183 C.3     1  UNL1        0.0487
      4 C          63.2855   89.1082   16.9462 C.3     1  UNL1        0.0714
      5 N          63.3982   90.6014   16.8572 N.3     1  UNL1       -0.2969
      6 C          63.6992   91.2536   15.5404 C.3     1  UNL1        0.0790
      7 C          63.8874   90.4128   14.3126 C.3     1  UNL1        0.1048
      8 H          64.0989   88.1965   12.5220 H       1  UNL1        0.2107
      9 H          64.1398   90.8795   17.4999 H       1  UNL1        0.1233
     10 C          63.7655   87.4793   13.9827 C.ar    1  UNL1        0.0046
     11 C          63.1241   87.0792   12.6872 C.ar    1  UNL1        0.0004
     12 C          63.1149   85.6389   12.2683 C.ar    1  UNL1        0.0317
     13 C          63.7470   84.5988   13.1450 C.ar    1  UNL1        0.1674
     14 F          63.7377   83.1584   12.7261 F       1  UNL1       -0.2018
     15 C          64.3883   84.9989   14.4406 C.ar    1  UNL1        0.1671
     16 F          65.0204   83.9588   15.3173 F       1  UNL1       -0.2018
     17 C          64.3976   86.4392   14.8594 C.ar    1  UNL1        0.0299
     18 C          64.1884   91.0650   12.9958 C.ar    1  UNL1        0.1640
     19 O          63.2428   91.1924   11.8383 O.2     1  UNL1       -0.3571
     20 N          63.9579   91.9105   10.7325 N.ar    1  UNL1       -0.0768
     21 C          65.3454   92.2269   11.2064 C.ar    1  UNL1        0.1296
     22 C          65.4879   91.7044   12.6052 C.ar    1  UNL1        0.0883
     23 BR         66.7145   91.8037   13.4629 Br      1  UNL1       -0.0444
     24 C          66.4046   92.9405   10.4196 C.ar    1  UNL1        0.0320
     25 C          67.5304   92.1653    9.8021 C.ar    1  UNL1        0.0025
     26 C          68.5895   92.8789    9.0154 C.ar    1  UNL1        0.0001
     27 C          68.5229   94.3679    8.8462 C.ar    1  UNL1        0.0009
     28 C          67.3969   95.1432    9.4638 C.ar    1  UNL1        0.0114
     29 C          66.3378   94.4295   10.2505 C.ar    1  UNL1        0.0592
     30 CL         65.2119   95.2048   10.8681 Cl      1  UNL1       -0.0822
@<TRIPOS>BOND
     1     2     1    1
     2     2    10    1
     3    10    11   ar
     4    11    12   ar
     5    12    13   ar
     6    13    14    1
     7    13    15   ar
     8    15    16    1
     9    15    17   ar
    10     2     3    1
    11     3     4    1
    12     4     5    1
    13     5     6    1
    14     6     7    1
    15     7    18    1
    16    18    19   ar
    17    19    20   ar
    18    20    21   ar
    19    21    24    1
    20    24    25   ar
    21    25    26   ar
    22    26    27   ar
    23    27    28   ar
    24    28    29   ar
    25    29    30    1
    26    21    22   ar
    27    22    23    1
    28     7     2    1
    29    22    18   ar
    30    17    10   ar
    31    29    24   ar
    32     1     8    1
    33     5     9    1
@<TRIPOS>MOLECULE
*****
 30 33 0 0 0
SMALL
GASTEIGER

@<TRIPOS>ATOM
      1 O          64.1811   87.4658   13.6620 O.3     1  UNL1       -0.3822
      2 C          63.7376   88.3776   14.7675 C.3     1  UNL1        0.1164
      3 C          63.3193   89.6298   15.4794 C.3     1  UNL1        0.0487
      4 C          62.9825   89.5850   16.9404 C.3     1  UNL1        0.0714
      5 N          63.0640   88.2880   17.6895 N.3     1  UNL1       -0.2969
      6 C          63.4823   87.0358   16.9776 C.3     1  UNL1        0.0790
      7 C          63.8191   87.0805   15.5165 C.3     1  UNL1        0.1048
      8 H          64.2739   87.9743   12.8412 H       1  UNL1        0.2107
      9 H          62.1362   88.1116   18.0748 H       1  UNL1        0.1233
     10 C          63.8101   89.3580   13.6345 C.ar    1  UNL1        0.0046
     11 C          63.1224   89.0559   12.3361 C.ar    1  UNL1        0.0004
     12 C          63.1949   90.0363   11.2032 C.ar    1  UNL1        0.0317
     13 C          63.9551   91.3188   11.3686 C.ar    1  UNL1        0.1674
     14 F          64.0277   92.2992   10.2356 F       1  UNL1       -0.2018
     15 C          64.6428   91.6209   12.6670 C.ar    1  UNL1        0.1671
     16 F          65.4030   92.9033   12.8325 F       1  UNL1       -0.2018
     17 C          64.5703   90.6405   13.7999 C.ar    1  UNL1        0.0299
     18 C          64.2375   85.8284   14.8045 C.ar    1  UNL1        0.1640
     19 O          65.6460   85.4269   14.4805 O.2     1  UNL1       -0.3571
     20 N          65.5996   84.1082   13.7672 N.ar    1  UNL1       -0.0768
     21 C          64.1626   83.6946   13.6503 C.ar    1  UNL1        0.1296
     22 C          63.3207   84.7577   14.2914 C.ar    1  UNL1        0.0883
     23 BR         61.8246   84.7514   14.4003 Br      1  UNL1       -0.0444
     24 C          63.6562   82.4384   13.0056 C.ar    1  UNL1        0.0320
     25 C          63.1039   81.3306   13.8527 C.ar    1  UNL1        0.0025
     26 C          62.5976   80.0745   13.2080 C.ar    1  UNL1        0.0001
     27 C          62.6435   79.9262   11.7160 C.ar    1  UNL1        0.0009
     28 C          63.1957   81.0341   10.8688 C.ar    1  UNL1        0.0114
     29 C          63.7021   82.2902   11.5136 C.ar    1  UNL1        0.0592
     30 CL         64.2544   83.3981   10.6664 Cl      1  UNL1       -0.0822
@<TRIPOS>BOND
     1     2     1    1
     2     2    10    1
     3    10    11   ar
     4    11    12   ar
     5    12    13   ar
     6    13    14    1
     7    13    15   ar
     8    15    16    1
     9    15    17   ar
    10     2     3    1
    11     3     4    1
    12     4     5    1
    13     5     6    1
    14     6     7    1
    15     7    18    1
    16    18    19   ar
    17    19    20   ar
    18    20    21   ar
    19    21    24    1
    20    24    25   ar
    21    25    26   ar
    22    26    27   ar
    23    27    28   ar
    24    28    29   ar
    25    29    30    1
    26    21    22   ar
    27    22    23    1
    28     7     2    1
    29    22    18   ar
    30    17    10   ar
    31    29    24   ar
    32     1     8    1
    33     5     9    1
@<TRIPOS>MOLECULE
*****
 30 33 0 0 0
SMALL
GASTEIGER

@<TRIPOS>ATOM
      1 O          64.4545   89.5900   13.0407 O.3     1  UNL1       -0.3822
      2 C          64.4582   90.4626   14.2608 C.3     1  UNL1        0.1164
      3 C          64.7268   91.6394   15.1513 C.3     1  UNL1        0.0487
      4 C          64.2315   91.6371   16.5671 C.3     1  UNL1        0.0714
      5 N          63.4676   90.4579   17.0925 N.3     1  UNL1       -0.2969
      6 C          63.1990   89.2811   16.2021 C.3     1  UNL1        0.0790
      7 C          63.6943   89.2834   14.7862 C.3     1  UNL1        0.1048
      8 H          64.9262   90.0382   12.3213 H       1  UNL1        0.2107
      9 H          62.5601   90.8080   17.3995 H       1  UNL1        0.1233
     10 C          65.2208   91.3388   13.3116 C.ar    1  UNL1        0.0046
     11 C          66.6172   91.7713   13.6476 C.ar    1  UNL1        0.0004
     12 C          67.3798   92.6474   12.6984 C.ar    1  UNL1        0.0317
     13 C          66.7459   93.0909   11.4133 C.ar    1  UNL1        0.1674
     14 F          67.5085   93.9671   10.4641 F       1  UNL1       -0.2018
     15 C          65.3495   92.6584   11.0774 C.ar    1  UNL1        0.1671
     16 F          64.7156   93.1019    9.7923 F       1  UNL1       -0.2018
     17 C          64.5870   91.7823   12.0265 C.ar    1  UNL1        0.0299
     18 C          63.4258   88.1066   13.8957 C.ar    1  UNL1        0.1640
     19 O          62.7763   88.1535   12.5444 O.2     1  UNL1       -0.3571
     20 N          62.7087   86.7522   12.0138 N.ar    1  UNL1       -0.0768
     21 C          63.3164   85.8391   13.0371 C.ar    1  UNL1        0.1296
     22 C          63.7596   86.6763   14.2002 C.ar    1  UNL1        0.0883
     23 BR         64.4205   86.1717   15.4486 Br      1  UNL1       -0.0444
     24 C          63.4564   84.3504   12.9182 C.ar    1  UNL1        0.0320
     25 C          64.3241   83.7619   11.8456 C.ar    1  UNL1        0.0025
     26 C          64.4641   82.2733   11.7267 C.ar    1  UNL1        0.0001
     27 C          63.7363   81.3730   12.6805 C.ar    1  UNL1        0.0009
     28 C          62.8685   81.9615   13.7533 C.ar    1  UNL1        0.0114
     29 C          62.7286   83.4502   13.8721 C.ar    1  UNL1        0.0592
     30 CL         61.8607   84.0387   14.9448 Cl      1  UNL1       -0.0822
@<TRIPOS>BOND
     1     2     1    1
     2     2    10    1
     3    10    11   ar
     4    11    12   ar
     5    12    13   ar
     6    13    14    1
     7    13    15   ar
     8    15    16    1
     9    15    17   ar
    10     2     3    1
    11     3     4    1
    12     4     5    1
    13     5     6    1
    14     6     7    1
    15     7    18    1
    16    18    19   ar
    17    19    20   ar
    18    20    21   ar
    19    21    24    1
    20    24    25   ar
    21    25    26   ar
    22    26    27   ar
    23    27    28   ar
    24    28    29   ar
    25    29    30    1
    26    21    22   ar
    27    22    23    1
    28     7     2    1
    29    22    18   ar
    30    17    10   ar
    31    29    24   ar
    32     1     8    1
    33     5     9    1
