@<TRIPOS>MOLECULE
*****
 24 26 0 0 0
SMALL
GASTEIGER

@<TRIPOS>ATOM
      1 C          64.0274   90.9702   15.4165 C.3     1  UNL1        0.0755
      2 C          65.1774   91.5729   14.6653 C.ar    1  UNL1        0.1591
      3 O          66.4381   92.1158   15.2703 O.2     1  UNL1       -0.3576
      4 N          67.3084   92.6170   14.1561 N.ar    1  UNL1       -0.0772
      5 C          66.5856   92.3839   12.8626 C.ar    1  UNL1        0.1278
      6 C          65.2685   91.7386   13.1773 C.ar    1  UNL1        0.1075
      7 C          67.0911   92.7345   11.4945 C.ar    1  UNL1        0.0316
      8 C          67.9232   91.7501   10.7274 C.ar    1  UNL1        0.0024
      9 C          68.4287   92.1007    9.3593 C.ar    1  UNL1        0.0001
     10 C          68.1021   93.4356    8.7585 C.ar    1  UNL1        0.0009
     11 C          67.2699   94.4200    9.5256 C.ar    1  UNL1        0.0114
     12 C          66.7644   94.0695   10.8936 C.ar    1  UNL1        0.0592
     13 CL         65.9323   95.0539   11.6607 Cl      1  UNL1       -0.0822
     14 C          64.2257   91.3306   12.1793 C.2     1  UNL1        0.2571
     15 O          63.8556   92.2580   11.0598 O.2     1  UNL1       -0.2694
     16 N          63.5531   89.9954   12.3005 N.am    1  UNL1       -0.2533
     17 C          63.9233   89.0681   13.4200 C.3     1  UNL1        0.1203
     18 C          62.5103   89.5875   11.3025 C.ar    1  UNL1        0.0542
     19 C          62.6844   88.3266   10.5089 C.ar    1  UNL1        0.0158
     20 C          61.6416   87.9186    9.5108 C.ar    1  UNL1        0.0127
     21 C          60.4248   88.7714    9.3064 C.ar    1  UNL1        0.0578
     22 CL         59.3820   88.3634    8.3084 Cl      1  UNL1       -0.0822
     23 C          60.2506   90.0324   10.1001 C.ar    1  UNL1        0.0127
     24 C          61.2934   90.4403   11.0981 C.ar    1  UNL1        0.0158
@<TRIPOS>BOND
     1     1     2    1
     2     2     3   ar
     3     3     4   ar
     4     4     5   ar
     5     5     7    1
     6     7     8   ar
     7     8     9   ar
     8     9    10   ar
     9    10    11   ar
    10    11    12   ar
    11    12    13    1
    12     5     6   ar
    13     6    14    1
    14    14    15    2
    15    14    16   am
    16    16    17    1
    17    16    18    1
    18    18    19   ar
    19    19    20   ar
    20    20    21   ar
    21    21    22    1
    22    21    23   ar
    23    23    24   ar
    24     6     2   ar
    25    24    18   ar
    26    12     7   ar
@<TRIPOS>MOLECULE
*****
 24 26 0 0 0
SMALL
GASTEIGER

@<TRIPOS>ATOM
      1 C          62.4291   88.6340   16.7176 C.3     1  UNL1        0.0755
      2 C          63.2333   89.7704   16.1590 C.ar    1  UNL1        0.1591
      3 O          63.5957   91.0334   16.8826 O.2     1  UNL1       -0.3576
      4 N          64.4026   91.8868   15.9495 N.ar    1  UNL1       -0.0772
      5 C          64.5388   91.1512   14.6493 C.ar    1  UNL1        0.1278
      6 C          63.8161   89.8432   14.7788 C.ar    1  UNL1        0.1075
      7 C          65.2695   91.6382   13.4331 C.ar    1  UNL1        0.0316
      8 C          64.5116   91.9452   12.1756 C.ar    1  UNL1        0.0024
      9 C          65.2421   92.4322   10.9595 C.ar    1  UNL1        0.0001
     10 C          66.7307   92.6122   11.0009 C.ar    1  UNL1        0.0009
     11 C          67.4886   92.3053   12.2584 C.ar    1  UNL1        0.0114
     12 C          66.7581   91.8183   13.4745 C.ar    1  UNL1        0.0592
     13 CL         67.5160   91.5113   14.7320 Cl      1  UNL1       -0.0822
     14 C          63.6972   88.7925   13.7150 C.2     1  UNL1        0.2571
     15 O          64.5568   87.5647   13.7741 O.2     1  UNL1       -0.2694
     16 N          62.7186   88.9695   12.5920 N.am    1  UNL1       -0.2533
     17 C          61.8590   90.1974   12.5329 C.3     1  UNL1        0.1203
     18 C          62.5997   87.9188   11.5281 C.ar    1  UNL1        0.0542
     19 C          62.6874   86.4670   11.8948 C.ar    1  UNL1        0.0158
     20 C          62.5684   85.4162   10.8309 C.ar    1  UNL1        0.0127
     21 C          62.3617   85.8173    9.4005 C.ar    1  UNL1        0.0578
     22 CL         62.2428   84.7666    8.3366 Cl      1  UNL1       -0.0822
     23 C          62.2740   87.2692    9.0337 C.ar    1  UNL1        0.0127
     24 C          62.3930   88.3199   10.0976 C.ar    1  UNL1        0.0158
@<TRIPOS>BOND
     1     1     2    1
     2     2     3   ar
     3     3     4   ar
     4     4     5   ar
     5     5     7    1
     6     7     8   ar
     7     8     9   ar
     8     9    10   ar
     9    10    11   ar
    10    11    12   ar
    11    12    13    1
    12     5     6   ar
    13     6    14    1
    14    14    15    2
    15    14    16   am
    16    16    17    1
    17    16    18    1
    18    18    19   ar
    19    19    20   ar
    20    20    21   ar
    21    21    22    1
    22    21    23   ar
    23    23    24   ar
    24     6     2   ar
    25    24    18   ar
    26    12     7   ar
@<TRIPOS>MOLECULE
*****
 24 26 0 0 0
SMALL
GASTEIGER

@<TRIPOS>ATOM
      1 C          62.8253   82.4343   11.3066 C.3     1  UNL1        0.0755
      2 C          63.3682   83.3015   12.4035 C.ar    1  UNL1        0.1591
      3 O          64.3107   82.8667   13.4865 O.2     1  UNL1       -0.3576
      4 N          64.5890   84.0523   14.3623 N.ar    1  UNL1       -0.0772
      5 C          63.8186   85.2198   13.8206 C.ar    1  UNL1        0.1278
      6 C          63.0641   84.7558   12.6100 C.ar    1  UNL1        0.1075
      7 C          63.8050   86.6077   14.3896 C.ar    1  UNL1        0.0316
      8 C          64.1424   87.7796   13.5162 C.ar    1  UNL1        0.0024
      9 C          64.1289   89.1674   14.0852 C.ar    1  UNL1        0.0001
     10 C          63.7780   89.3833   15.5275 C.ar    1  UNL1        0.0009
     11 C          63.4406   88.2114   16.4008 C.ar    1  UNL1        0.0114
     12 C          63.4541   86.8235   15.8318 C.ar    1  UNL1        0.0592
     13 CL         63.1167   85.6516   16.7052 Cl      1  UNL1       -0.0822
     14 C          62.1637   85.5981   11.7558 C.2     1  UNL1        0.2571
     15 O          61.0624   86.3970   12.3876 O.2     1  UNL1       -0.2694
     16 N          62.3643   85.6416   10.2700 N.am    1  UNL1       -0.2533
     17 C          63.4655   84.8427    9.6382 C.3     1  UNL1        0.1203
     18 C          61.4638   86.4840    9.4158 C.ar    1  UNL1        0.0542
     19 C          61.4353   87.9727    9.5970 C.ar    1  UNL1        0.0158
     20 C          60.5348   88.8150    8.7428 C.ar    1  UNL1        0.0127
     21 C          59.6629   88.1687    7.7076 C.ar    1  UNL1        0.0578
     22 CL         58.7624   89.0110    6.8534 Cl      1  UNL1       -0.0822
     23 C          59.6914   86.6799    7.5264 C.ar    1  UNL1        0.0127
     24 C          60.5918   85.8375    8.3805 C.ar    1  UNL1        0.0158
@<TRIPOS>BOND
     1     1     2    1
     2     2     3   ar
     3     3     4   ar
     4     4     5   ar
     5     5     7    1
     6     7     8   ar
     7     8     9   ar
     8     9    10   ar
     9    10    11   ar
    10    11    12   ar
    11    12    13    1
    12     5     6   ar
    13     6    14    1
    14    14    15    2
    15    14    16   am
    16    16    17    1
    17    16    18    1
    18    18    19   ar
    19    19    20   ar
    20    20    21   ar
    21    21    22    1
    22    21    23   ar
    23    23    24   ar
    24     6     2   ar
    25    24    18   ar
    26    12     7   ar
@<TRIPOS>MOLECULE
*****
 24 26 0 0 0
SMALL
GASTEIGER

@<TRIPOS>ATOM
      1 C          59.7533   92.0008    4.0740 C.3     1  UNL1        0.0755
      2 C          61.0732   92.2524    3.4073 C.ar    1  UNL1        0.1591
      3 O          62.3842   91.6276    3.7830 O.2     1  UNL1       -0.3576
      4 N          63.4351   92.1620    2.8557 N.ar    1  UNL1       -0.0772
      5 C          62.7736   93.1171    1.9068 C.ar    1  UNL1        0.1278
      6 C          61.3140   93.1729    2.2477 C.ar    1  UNL1        0.1075
      7 C          63.4527   93.8820    0.8095 C.ar    1  UNL1        0.0316
      8 C          63.1382   93.5749   -0.6246 C.ar    1  UNL1        0.0024
      9 C          63.8172   94.3397   -1.7218 C.ar    1  UNL1        0.0001
     10 C          64.8108   95.4118   -1.3848 C.ar    1  UNL1        0.0009
     11 C          65.1253   95.7189    0.0493 C.ar    1  UNL1        0.0114
     12 C          64.4462   94.9541    1.1465 C.ar    1  UNL1        0.0592
     13 CL         64.7608   95.2612    2.5806 Cl      1  UNL1       -0.0822
     14 C          60.2770   94.0035    1.5513 C.2     1  UNL1        0.2571
     15 O          59.9325   95.3665    2.0745 O.2     1  UNL1       -0.2694
     16 N          59.5846   93.4712    0.3318 N.am    1  UNL1       -0.2533
     17 C          59.9292   92.1082   -0.1914 C.3     1  UNL1        0.1203
     18 C          58.5477   94.3017   -0.3645 C.ar    1  UNL1        0.0542
     19 C          58.7991   95.7589   -0.6165 C.ar    1  UNL1        0.0158
     20 C          57.7622   96.5894   -1.3129 C.ar    1  UNL1        0.0127
     21 C          56.4739   95.9629   -1.7573 C.ar    1  UNL1        0.0578
     22 CL         55.4370   96.7934   -2.4536 Cl      1  UNL1       -0.0822
     23 C          56.2224   94.5057   -1.5053 C.ar    1  UNL1        0.0127
     24 C          57.2593   93.6751   -0.8089 C.ar    1  UNL1        0.0158
@<TRIPOS>BOND
     1     1     2    1
     2     2     3   ar
     3     3     4   ar
     4     4     5   ar
     5     5     7    1
     6     7     8   ar
     7     8     9   ar
     8     9    10   ar
     9    10    11   ar
    10    11    12   ar
    11    12    13    1
    12     5     6   ar
    13     6    14    1
    14    14    15    2
    15    14    16   am
    16    16    17    1
    17    16    18    1
    18    18    19   ar
    19    19    20   ar
    20    20    21   ar
    21    21    22    1
    22    21    23   ar
    23    23    24   ar
    24     6     2   ar
    25    24    18   ar
    26    12     7   ar
@<TRIPOS>MOLECULE
*****
 24 26 0 0 0
SMALL
GASTEIGER

@<TRIPOS>ATOM
      1 C          64.7189   85.6005   14.4256 C.3     1  UNL1        0.0755
      2 C          63.8897   86.3960   13.4614 C.ar    1  UNL1        0.1591
      3 O          63.6008   87.8653   13.5503 O.2     1  UNL1       -0.3576
      4 N          62.7364   88.2392   12.3829 N.ar    1  UNL1       -0.0772
      5 C          62.4910   87.0010   11.5724 C.ar    1  UNL1        0.1278
      6 C          63.2038   85.8619   12.2390 C.ar    1  UNL1        0.1075
      7 C          61.6759   86.9168   10.3160 C.ar    1  UNL1        0.0316
      8 C          62.2075   86.1750    9.1255 C.ar    1  UNL1        0.0024
      9 C          61.3925   86.0908    7.8691 C.ar    1  UNL1        0.0001
     10 C          60.0459   86.7483    7.8031 C.ar    1  UNL1        0.0009
     11 C          59.5144   87.4901    8.9936 C.ar    1  UNL1        0.0114
     12 C          60.3294   87.5744   10.2500 C.ar    1  UNL1        0.0592
     13 CL         59.7979   88.3161   11.4405 Cl      1  UNL1       -0.0822
     14 C          63.2267   84.4385   11.7663 C.2     1  UNL1        0.2571
     15 O          63.8064   84.1034   10.4239 O.2     1  UNL1       -0.2694
     16 N          62.6700   83.3504   12.6356 N.am    1  UNL1       -0.2533
     17 C          62.0902   83.6855   13.9779 C.3     1  UNL1        0.1203
     18 C          62.6929   81.9270   12.1628 C.ar    1  UNL1        0.0542
     19 C          62.3582   80.8157   13.1130 C.ar    1  UNL1        0.0158
     20 C          62.3811   79.3923   12.6403 C.ar    1  UNL1        0.0127
     21 C          62.7386   79.0803   11.2174 C.ar    1  UNL1        0.0578
     22 CL         62.7615   77.6569   10.7446 Cl      1  UNL1       -0.0822
     23 C          63.0733   80.1917   10.2671 C.ar    1  UNL1        0.0127
     24 C          63.0504   81.6150   10.7399 C.ar    1  UNL1        0.0158
@<TRIPOS>BOND
     1     1     2    1
     2     2     3   ar
     3     3     4   ar
     4     4     5   ar
     5     5     7    1
     6     7     8   ar
     7     8     9   ar
     8     9    10   ar
     9    10    11   ar
    10    11    12   ar
    11    12    13    1
    12     5     6   ar
    13     6    14    1
    14    14    15    2
    15    14    16   am
    16    16    17    1
    17    16    18    1
    18    18    19   ar
    19    19    20   ar
    20    20    21   ar
    21    21    22    1
    22    21    23   ar
    23    23    24   ar
    24     6     2   ar
    25    24    18   ar
    26    12     7   ar
@<TRIPOS>MOLECULE
*****
 24 26 0 0 0
SMALL
GASTEIGER

@<TRIPOS>ATOM
      1 C          45.4958   76.8372   22.4352 C.3     1  UNL1        0.0755
      2 C          45.5436   78.0506   21.5547 C.ar    1  UNL1        0.1591
      3 O          45.8146   79.4559   22.0040 O.2     1  UNL1       -0.3576
      4 N          45.7673   80.3455   20.7972 N.ar    1  UNL1       -0.0772
      5 C          45.4671   79.4901   19.6021 C.ar    1  UNL1        0.1278
      6 C          45.3289   78.0718   20.0703 C.ar    1  UNL1        0.1075
      7 C          45.3293   79.9691   18.1873 C.ar    1  UNL1        0.0316
      8 C          43.9805   80.3485   17.6519 C.ar    1  UNL1        0.0024
      9 C          43.8426   80.8274   16.2372 C.ar    1  UNL1        0.0001
     10 C          45.0537   80.9269   15.3578 C.ar    1  UNL1        0.0009
     11 C          46.4025   80.5475   15.8931 C.ar    1  UNL1        0.0114
     12 C          46.5404   80.0686   17.3079 C.ar    1  UNL1        0.0592
     13 CL         47.8892   79.6891   17.8432 Cl      1  UNL1       -0.0822
     14 C          45.0286   76.8833   19.2058 C.2     1  UNL1        0.2571
     15 O          43.6334   76.6538   18.7047 O.2     1  UNL1       -0.2694
     16 N          46.1232   75.9243   18.8426 N.am    1  UNL1       -0.2533
     17 C          47.5183   76.1538   19.3437 C.3     1  UNL1        0.1203
     18 C          45.8229   74.7358   17.9781 C.ar    1  UNL1        0.0542
     19 C          45.8688   73.3542   18.5604 C.ar    1  UNL1        0.0158
     20 C          45.5685   72.1657   17.6959 C.ar    1  UNL1        0.0127
     21 C          45.2223   72.3588   16.2493 C.ar    1  UNL1        0.0578
     22 CL         44.9220   71.1703   15.3849 Cl      1  UNL1       -0.0822
     23 C          45.1763   73.7404   15.6670 C.ar    1  UNL1        0.0127
     24 C          45.4766   74.9289   16.5315 C.ar    1  UNL1        0.0158
@<TRIPOS>BOND
     1     1     2    1
     2     2     3   ar
     3     3     4   ar
     4     4     5   ar
     5     5     7    1
     6     7     8   ar
     7     8     9   ar
     8     9    10   ar
     9    10    11   ar
    10    11    12   ar
    11    12    13    1
    12     5     6   ar
    13     6    14    1
    14    14    15    2
    15    14    16   am
    16    16    17    1
    17    16    18    1
    18    18    19   ar
    19    19    20   ar
    20    20    21   ar
    21    21    22    1
    22    21    23   ar
    23    23    24   ar
    24     6     2   ar
    25    24    18   ar
    26    12     7   ar
@<TRIPOS>MOLECULE
*****
 24 26 0 0 0
SMALL
GASTEIGER

@<TRIPOS>ATOM
      1 C          63.1402   85.2741    8.0453 C.3     1  UNL1        0.0755
      2 C          63.3929   84.5291    9.3225 C.ar    1  UNL1        0.1591
      3 O          64.0277   83.1754    9.4428 O.2     1  UNL1       -0.3576
      4 N          64.0823   82.8168   10.8983 N.ar    1  UNL1       -0.0772
      5 C          63.4813   83.9489   11.6775 C.ar    1  UNL1        0.1278
      6 C          63.0553   85.0072   10.7036 C.ar    1  UNL1        0.1075
      7 C          63.3325   84.0117   13.1688 C.ar    1  UNL1        0.0316
      8 C          63.9875   85.1177   13.9420 C.ar    1  UNL1        0.0024
      9 C          63.8388   85.1805   15.4332 C.ar    1  UNL1        0.0001
     10 C          63.0349   84.1373   16.1513 C.ar    1  UNL1        0.0009
     11 C          62.3799   83.0314   15.3782 C.ar    1  UNL1        0.0114
     12 C          62.5287   82.9686   13.8869 C.ar    1  UNL1        0.0592
     13 CL         61.8736   81.8626   13.1137 Cl      1  UNL1       -0.0822
     14 C          62.4056   86.3141   11.0499 C.2     1  UNL1        0.2571
     15 O          62.9862   87.1770   12.1308 O.2     1  UNL1       -0.2694
     16 N          61.1754   86.7581   10.3155 N.am    1  UNL1       -0.2533
     17 C          60.5948   85.8951    9.2346 C.3     1  UNL1        0.1203
     18 C          60.5258   88.0650   10.6618 C.ar    1  UNL1        0.0542
     19 C          60.7157   89.2564    9.7705 C.ar    1  UNL1        0.0158
     20 C          60.0660   90.5633   10.1168 C.ar    1  UNL1        0.0127
     21 C          59.2265   90.6788   11.3544 C.ar    1  UNL1        0.0578
     22 CL         58.5768   91.9857   11.7007 Cl      1  UNL1       -0.0822
     23 C          59.0365   89.4873   12.2458 C.ar    1  UNL1        0.0127
     24 C          59.6862   88.1805   11.8995 C.ar    1  UNL1        0.0158
@<TRIPOS>BOND
     1     1     2    1
     2     2     3   ar
     3     3     4   ar
     4     4     5   ar
     5     5     7    1
     6     7     8   ar
     7     8     9   ar
     8     9    10   ar
     9    10    11   ar
    10    11    12   ar
    11    12    13    1
    12     5     6   ar
    13     6    14    1
    14    14    15    2
    15    14    16   am
    16    16    17    1
    17    16    18    1
    18    18    19   ar
    19    19    20   ar
    20    20    21   ar
    21    21    22    1
    22    21    23   ar
    23    23    24   ar
    24     6     2   ar
    25    24    18   ar
    26    12     7   ar
@<TRIPOS>MOLECULE
*****
 24 26 0 0 0
SMALL
GASTEIGER

@<TRIPOS>ATOM
      1 C          60.5882   92.7962    2.8084 C.3     1  UNL1        0.0755
      2 C          61.8862   93.0927    2.1175 C.ar    1  UNL1        0.1591
      3 O          63.2353   92.5700    2.5136 O.2     1  UNL1       -0.3576
      4 N          64.2459   93.1182    1.5501 N.ar    1  UNL1       -0.0772
      5 C          63.5214   93.9796    0.5587 C.ar    1  UNL1        0.1278
      6 C          62.0631   93.9639    0.9093 C.ar    1  UNL1        0.1075
      7 C          64.1457   94.7259   -0.5831 C.ar    1  UNL1        0.0316
      8 C          65.0290   95.9077   -0.3130 C.ar    1  UNL1        0.0024
      9 C          65.6533   96.6539   -1.4546 C.ar    1  UNL1        0.0001
     10 C          65.3943   96.2183   -2.8664 C.ar    1  UNL1        0.0009
     11 C          64.5110   95.0364   -3.1365 C.ar    1  UNL1        0.0114
     12 C          63.8867   94.2902   -1.9948 C.ar    1  UNL1        0.0592
     13 CL         63.0034   93.1083   -2.2649 Cl      1  UNL1       -0.0822
     14 C          60.9729   94.6915    0.1799 C.2     1  UNL1        0.2571
     15 O          60.8883   96.1873    0.2563 O.2     1  UNL1       -0.2694
     16 N          59.9675   93.9237   -0.6259 N.am    1  UNL1       -0.2533
     17 C          60.0521   92.4279   -0.7023 C.3     1  UNL1        0.1203
     18 C          58.8773   94.6513   -1.3553 C.ar    1  UNL1        0.0542
     19 C          57.5117   94.7634   -0.7449 C.ar    1  UNL1        0.0158
     20 C          56.4216   95.4910   -1.4743 C.ar    1  UNL1        0.0127
     21 C          56.6970   96.1066   -2.8141 C.ar    1  UNL1        0.0578
     22 CL         55.6068   96.8342   -3.5435 Cl      1  UNL1       -0.0822
     23 C          58.0626   95.9946   -3.4246 C.ar    1  UNL1        0.0127
     24 C          59.1528   95.2669   -2.6952 C.ar    1  UNL1        0.0158
@<TRIPOS>BOND
     1     1     2    1
     2     2     3   ar
     3     3     4   ar
     4     4     5   ar
     5     5     7    1
     6     7     8   ar
     7     8     9   ar
     8     9    10   ar
     9    10    11   ar
    10    11    12   ar
    11    12    13    1
    12     5     6   ar
    13     6    14    1
    14    14    15    2
    15    14    16   am
    16    16    17    1
    17    16    18    1
    18    18    19   ar
    19    19    20   ar
    20    20    21   ar
    21    21    22    1
    22    21    23   ar
    23    23    24   ar
    24     6     2   ar
    25    24    18   ar
    26    12     7   ar
@<TRIPOS>MOLECULE
*****
 24 26 0 0 0
SMALL
GASTEIGER

@<TRIPOS>ATOM
      1 C          63.1597   81.6329   10.7038 C.3     1  UNL1        0.0755
      2 C          63.4374   82.0649   12.1132 C.ar    1  UNL1        0.1591
      3 O          64.1329   81.2510   13.1639 O.2     1  UNL1       -0.3576
      4 N          64.1937   82.0697   14.4193 N.ar    1  UNL1       -0.0772
      5 C          63.5359   83.3895   14.1445 C.ar    1  UNL1        0.1278
      6 C          63.0685   83.3865   12.7192 C.ar    1  UNL1        0.1075
      7 C          63.3740   84.5147   15.1232 C.ar    1  UNL1        0.0316
      8 C          62.1617   84.5733   16.0047 C.ar    1  UNL1        0.0024
      9 C          61.9998   85.6984   16.9833 C.ar    1  UNL1        0.0001
     10 C          63.0500   86.7649   17.0804 C.ar    1  UNL1        0.0009
     11 C          64.2622   86.7063   16.1989 C.ar    1  UNL1        0.0114
     12 C          64.4242   85.5812   15.2203 C.ar    1  UNL1        0.0592
     13 CL         65.6364   85.5226   14.3387 Cl      1  UNL1       -0.0822
     14 C          62.3571   84.5081   12.0222 C.2     1  UNL1        0.2571
     15 O          61.3030   85.2923   12.7462 O.2     1  UNL1       -0.2694
     16 N          62.6996   84.8456   10.6015 N.am    1  UNL1       -0.2533
     17 C          63.7537   84.0614    9.8775 C.3     1  UNL1        0.1203
     18 C          61.9881   85.9673    9.9045 C.ar    1  UNL1        0.0542
     19 C          61.0358   85.6701    8.7843 C.ar    1  UNL1        0.0158
     20 C          60.3244   86.7918    8.0874 C.ar    1  UNL1        0.0127
     21 C          60.5652   88.2105    8.5106 C.ar    1  UNL1        0.0578
     22 CL         59.8538   89.3321    7.8136 Cl      1  UNL1       -0.0822
     23 C          61.5175   88.5077    9.6308 C.ar    1  UNL1        0.0127
     24 C          62.2290   87.3860   10.3278 C.ar    1  UNL1        0.0158
@<TRIPOS>BOND
     1     1     2    1
     2     2     3   ar
     3     3     4   ar
     4     4     5   ar
     5     5     7    1
     6     7     8   ar
     7     8     9   ar
     8     9    10   ar
     9    10    11   ar
    10    11    12   ar
    11    12    13    1
    12     5     6   ar
    13     6    14    1
    14    14    15    2
    15    14    16   am
    16    16    17    1
    17    16    18    1
    18    18    19   ar
    19    19    20   ar
    20    20    21   ar
    21    21    22    1
    22    21    23   ar
    23    23    24   ar
    24     6     2   ar
    25    24    18   ar
    26    12     7   ar
