@<TRIPOS>MOLECULE
*****
 27 29 0 0 0
SMALL
GASTEIGER

@<TRIPOS>ATOM
      1 C          63.4341   83.9923   14.8642 C.2     1  UNL1        0.2252
      2 O          64.9290   84.1038   14.8117 O.2     1  UNL1       -0.2750
      3 N          62.6456   84.8977   15.7634 N.am    1  UNL1       -0.3004
      4 H          61.6644   84.8245   15.7979 H       1  UNL1        0.1497
      5 C          62.7277   82.9754   14.0174 C.3     1  UNL1        0.1154
      6 C          63.6868   81.3625   13.3044 C.3     1  UNL1        0.0335
      7 C          63.2520   82.6415   12.6524 C.3     1  UNL1        0.1377
      8 C          62.7076   83.9903   12.2857 C.3     1  UNL1        0.0613
      9 C          62.9864   84.2228   10.8302 C.3     1  UNL1        0.1290
     10 C          63.3329   84.3135    9.3737 C.3     1  UNL1        0.0305
     11 C          62.9604   85.5364    8.5890 C.3     1  UNL1        0.0025
     12 C          62.2413   86.6684    9.2608 C.3     1  UNL1        0.0002
     13 C          61.8948   86.5777   10.7173 C.3     1  UNL1        0.0025
     14 C          62.2673   85.3548   11.5021 C.3     1  UNL1        0.0305
     15 O          63.7031   83.0176   10.2974 O.3     1  UNL1       -0.2256
     16 O          63.8673   82.0403   11.4235 O.3     1  UNL1       -0.2251
     17 C          63.3520   85.9146   16.6101 C.3     1  UNL1        0.1163
     18 C          63.5459   87.3115   16.0992 C.ar    1  UNL1       -0.0024
     19 C          64.2068   87.5398   14.7721 C.ar    1  UNL1        0.0005
     20 C          64.4007   88.9368   14.2613 C.ar    1  UNL1        0.0368
     21 C          63.9337   90.1054   15.0776 C.ar    1  UNL1        0.1443
     22 C          63.2729   89.8771   16.4046 C.ar    1  UNL1        0.0368
     23 C          63.0790   88.4801   16.9155 C.ar    1  UNL1        0.0005
     24 O          64.1277   91.5023   14.5666 O.3     1  UNL1       -0.4236
     25 C          65.2968   91.8222   13.6831 C.3     1  UNL1        0.5087
     26 F          66.6590   91.2922   14.0206 F       1  UNL1       -0.1550
     27 F          65.1041   92.6720   12.4622 F       1  UNL1       -0.1550
@<TRIPOS>BOND
     1     6     7    1
     2     7     5    1
     3     5     1    1
     4     1     2    2
     5     1     3   am
     6     3    17    1
     7    17    18    1
     8    18    19   ar
     9    19    20   ar
    10    20    21   ar
    11    21    24    1
    12    24    25    1
    13    25    26    1
    14    25    27    1
    15    21    22   ar
    16    22    23   ar
    17     7     8    1
    18     8     9    1
    19     9    10    1
    20    10    11    1
    21    11    12    1
    22    12    13    1
    23    13    14    1
    24     9    15    1
    25    15    16    1
    26    16     7    1
    27    23    18   ar
    28    14     9    1
    29     3     4    1
@<TRIPOS>MOLECULE
*****
 27 29 0 0 0
SMALL
GASTEIGER

@<TRIPOS>ATOM
      1 C          64.0937   87.6392   14.2871 C.2     1  UNL1        0.2252
      2 O          63.4669   87.6261   12.9245 O.2     1  UNL1       -0.2750
      3 N          64.2155   88.9283   15.0444 N.am    1  UNL1       -0.3004
      4 H          64.6269   88.9369   15.9388 H       1  UNL1        0.1497
      5 C          64.5987   86.3630   14.8927 C.3     1  UNL1        0.1154
      6 C          63.4718   86.0344   16.5211 C.3     1  UNL1        0.0335
      7 C          63.6366   85.2669   15.2428 C.3     1  UNL1        0.1377
      8 C          64.0025   84.7286   13.8914 C.3     1  UNL1        0.0613
      9 C          63.2320   83.4601   13.6735 C.3     1  UNL1        0.1290
     10 C          62.3993   82.2148   13.5980 C.3     1  UNL1        0.0305
     11 C          62.4603   81.3447   12.3777 C.3     1  UNL1        0.0025
     12 C          63.3539   81.7201   11.2328 C.3     1  UNL1        0.0002
     13 C          64.1865   82.9655   11.3084 C.3     1  UNL1        0.0025
     14 C          64.1255   83.8355   12.5287 C.3     1  UNL1        0.0305
     15 O          62.3899   83.2145   14.8903 O.3     1  UNL1       -0.2256
     16 O          62.6399   84.3312   15.8603 O.3     1  UNL1       -0.2251
     17 C          63.7105   90.2043   14.4389 C.3     1  UNL1        0.1163
     18 C          64.6066   91.0219   13.5565 C.ar    1  UNL1       -0.0024
     19 C          65.9541   91.4561   14.0522 C.ar    1  UNL1        0.0005
     20 C          66.8502   92.2736   13.1699 C.ar    1  UNL1        0.0368
     21 C          66.3989   92.6569   11.7917 C.ar    1  UNL1        0.1443
     22 C          65.0515   92.2228   11.2960 C.ar    1  UNL1        0.0368
     23 C          64.1553   91.4052   12.1783 C.ar    1  UNL1        0.0005
     24 O          67.2951   93.4745   10.9093 O.3     1  UNL1       -0.4236
     25 C          67.7660   92.9190    9.5981 C.3     1  UNL1        0.5087
     26 F          67.8819   93.8164    8.4016 F       1  UNL1       -0.1550
     27 F          68.1211   91.4662    9.4830 F       1  UNL1       -0.1550
@<TRIPOS>BOND
     1     6     7    1
     2     7     5    1
     3     5     1    1
     4     1     2    2
     5     1     3   am
     6     3    17    1
     7    17    18    1
     8    18    19   ar
     9    19    20   ar
    10    20    21   ar
    11    21    24    1
    12    24    25    1
    13    25    26    1
    14    25    27    1
    15    21    22   ar
    16    22    23   ar
    17     7     8    1
    18     8     9    1
    19     9    10    1
    20    10    11    1
    21    11    12    1
    22    12    13    1
    23    13    14    1
    24     9    15    1
    25    15    16    1
    26    16     7    1
    27    23    18   ar
    28    14     9    1
    29     3     4    1
@<TRIPOS>MOLECULE
*****
 27 29 0 0 0
SMALL
GASTEIGER

@<TRIPOS>ATOM
      1 C          61.1226   89.2779   11.0955 C.2     1  UNL1        0.2252
      2 O          60.0711   90.3473   11.1185 O.2     1  UNL1       -0.2750
      3 N          62.5705   89.6466   11.2284 N.am    1  UNL1       -0.3004
      4 H          63.2606   88.9447   11.2133 H       1  UNL1        0.1497
      5 C          60.7262   87.8396   10.9397 C.3     1  UNL1        0.1154
      6 C          60.6250   87.9693    8.9390 C.3     1  UNL1        0.0335
      7 C          61.3326   87.0086    9.8481 C.3     1  UNL1        0.1377
      8 C          61.9135   86.2217   10.9853 C.3     1  UNL1        0.0613
      9 C          62.7311   85.1051   10.4066 C.3     1  UNL1        0.1290
     10 C          63.5081   84.0433    9.6863 C.3     1  UNL1        0.0305
     11 C          64.2678   83.0112   10.4657 C.3     1  UNL1        0.0025
     12 C          64.2505   83.0408   11.9653 C.3     1  UNL1        0.0002
     13 C          63.4736   84.1026   12.6855 C.3     1  UNL1        0.0025
     14 C          62.7138   85.1348   11.9062 C.3     1  UNL1        0.0305
     15 O          62.6555   85.2020    8.9116 O.3     1  UNL1       -0.2256
     16 O          61.7912   86.3785    8.5664 O.3     1  UNL1       -0.2251
     17 C          62.9668   91.0849   11.3843 C.3     1  UNL1        0.1163
     18 C          64.2374   91.4396   12.0983 C.ar    1  UNL1       -0.0024
     19 C          64.5153   90.8748   13.4599 C.ar    1  UNL1        0.0005
     20 C          65.7859   91.2295   14.1739 C.ar    1  UNL1        0.0368
     21 C          66.7785   92.1489   13.5264 C.ar    1  UNL1        0.1443
     22 C          66.5007   92.7136   12.1649 C.ar    1  UNL1        0.0368
     23 C          65.2301   92.3590   11.4508 C.ar    1  UNL1        0.0005
     24 O          68.0491   92.5036   14.2405 O.3     1  UNL1       -0.4236
     25 C          67.9955   93.2499   15.5405 C.3     1  UNL1        0.5087
     26 F          66.8034   93.1057   16.4395 F       1  UNL1       -0.1550
     27 F          69.1340   94.1405   15.9416 F       1  UNL1       -0.1550
@<TRIPOS>BOND
     1     6     7    1
     2     7     5    1
     3     5     1    1
     4     1     2    2
     5     1     3   am
     6     3    17    1
     7    17    18    1
     8    18    19   ar
     9    19    20   ar
    10    20    21   ar
    11    21    24    1
    12    24    25    1
    13    25    26    1
    14    25    27    1
    15    21    22   ar
    16    22    23   ar
    17     7     8    1
    18     8     9    1
    19     9    10    1
    20    10    11    1
    21    11    12    1
    22    12    13    1
    23    13    14    1
    24     9    15    1
    25    15    16    1
    26    16     7    1
    27    23    18   ar
    28    14     9    1
    29     3     4    1
@<TRIPOS>MOLECULE
*****
 27 29 0 0 0
SMALL
GASTEIGER

@<TRIPOS>ATOM
      1 C          61.0232   88.9020   11.7080 C.2     1  UNL1        0.2252
      2 O          60.1136   90.0936   11.7571 O.2     1  UNL1       -0.2750
      3 N          62.3755   88.9634   12.3543 N.am    1  UNL1       -0.3004
      4 H          62.9725   88.1812   12.3220 H       1  UNL1        0.1497
      5 C          60.5806   87.6487   11.0124 C.3     1  UNL1        0.1154
      6 C          60.9096   88.2232    9.1173 C.3     1  UNL1        0.0335
      7 C          61.4211   87.0621    9.9174 C.3     1  UNL1        0.1377
      8 C          61.7569   86.0236   10.9463 C.3     1  UNL1        0.0613
      9 C          62.6981   85.0377   10.3199 C.3     1  UNL1        0.1290
     10 C          63.6292   84.1379    9.5626 C.3     1  UNL1        0.0305
     11 C          64.2206   82.9342   10.2344 C.3     1  UNL1        0.0025
     12 C          63.8810   82.6303   11.6635 C.3     1  UNL1        0.0002
     13 C          62.9499   83.5300   12.4208 C.3     1  UNL1        0.0025
     14 C          62.3585   84.7337   11.7490 C.3     1  UNL1        0.0305
     15 O          62.9440   85.4669    8.9038 O.3     1  UNL1       -0.2256
     16 O          62.1548   86.7181    8.6550 O.3     1  UNL1       -0.2251
     17 C          62.8180   90.2166   13.0498 C.3     1  UNL1        0.1163
     18 C          63.9298   91.0419   12.4728 C.ar    1  UNL1       -0.0024
     19 C          65.0793   91.4625   13.3398 C.ar    1  UNL1        0.0005
     20 C          66.1911   92.2878   12.7628 C.ar    1  UNL1        0.0368
     21 C          66.1533   92.6924   11.3189 C.ar    1  UNL1        0.1443
     22 C          65.0038   92.2718   10.4520 C.ar    1  UNL1        0.0368
     23 C          63.8920   91.4465   11.0289 C.ar    1  UNL1        0.0005
     24 O          67.2651   93.5178   10.7420 O.3     1  UNL1       -0.4236
     25 C          67.8393   93.1697    9.4007 C.3     1  UNL1        0.5087
     26 F          67.6872   94.1201    8.2502 F       1  UNL1       -0.1550
     27 F          68.5658   91.8713    9.2098 F       1  UNL1       -0.1550
@<TRIPOS>BOND
     1     6     7    1
     2     7     5    1
     3     5     1    1
     4     1     2    2
     5     1     3   am
     6     3    17    1
     7    17    18    1
     8    18    19   ar
     9    19    20   ar
    10    20    21   ar
    11    21    24    1
    12    24    25    1
    13    25    26    1
    14    25    27    1
    15    21    22   ar
    16    22    23   ar
    17     7     8    1
    18     8     9    1
    19     9    10    1
    20    10    11    1
    21    11    12    1
    22    12    13    1
    23    13    14    1
    24     9    15    1
    25    15    16    1
    26    16     7    1
    27    23    18   ar
    28    14     9    1
    29     3     4    1
@<TRIPOS>MOLECULE
*****
 27 29 0 0 0
SMALL
GASTEIGER

@<TRIPOS>ATOM
      1 C          60.8898   88.6632   10.4747 C.2     1  UNL1        0.2252
      2 O          59.8425   89.6440   10.9116 O.2     1  UNL1       -0.2750
      3 N          62.2691   89.1422   10.1307 N.am    1  UNL1       -0.3004
      4 H          62.9566   88.4985    9.8439 H       1  UNL1        0.1497
      5 C          60.5580   87.2033   10.3816 C.3     1  UNL1        0.1154
      6 C          60.7080   87.0305    8.3872 C.3     1  UNL1        0.0335
      7 C          61.3817   86.3010    9.5114 C.3     1  UNL1        0.1377
      8 C          61.8833   85.7601   10.8175 C.3     1  UNL1        0.0613
      9 C          62.8763   84.6760   10.5196 C.3     1  UNL1        0.1290
     10 C          63.8424   83.6204   10.0696 C.3     1  UNL1        0.0305
     11 C          64.5917   82.8081   11.0838 C.3     1  UNL1        0.0025
     12 C          64.3748   83.0513   12.5480 C.3     1  UNL1        0.0002
     13 C          63.4088   84.1068   12.9980 C.3     1  UNL1        0.0025
     14 C          62.6595   84.9192   11.9838 C.3     1  UNL1        0.0305
     15 O          62.9884   84.5468    9.0294 O.3     1  UNL1       -0.2256
     16 O          62.0647   85.5512    8.4062 O.3     1  UNL1       -0.2251
     17 C          62.6009   90.6021   10.2238 C.3     1  UNL1        0.1163
     18 C          63.5788   91.0848   11.2538 C.ar    1  UNL1       -0.0024
     19 C          63.5086   90.5617   12.6579 C.ar    1  UNL1        0.0005
     20 C          64.4864   91.0443   13.6878 C.ar    1  UNL1        0.0368
     21 C          65.5345   92.0501   13.3137 C.ar    1  UNL1        0.1443
     22 C          65.6047   92.5732   11.9097 C.ar    1  UNL1        0.0368
     23 C          64.6268   92.0905   10.8797 C.ar    1  UNL1        0.0005
     24 O          66.5124   92.5328   14.3438 O.3     1  UNL1       -0.4236
     25 C          67.9344   92.0570   14.3088 C.3     1  UNL1        0.5087
     26 F          68.7817   92.1343   15.5443 F       1  UNL1       -0.1550
     27 F          68.5093   91.5037   13.0386 F       1  UNL1       -0.1550
@<TRIPOS>BOND
     1     6     7    1
     2     7     5    1
     3     5     1    1
     4     1     2    2
     5     1     3   am
     6     3    17    1
     7    17    18    1
     8    18    19   ar
     9    19    20   ar
    10    20    21   ar
    11    21    24    1
    12    24    25    1
    13    25    26    1
    14    25    27    1
    15    21    22   ar
    16    22    23   ar
    17     7     8    1
    18     8     9    1
    19     9    10    1
    20    10    11    1
    21    11    12    1
    22    12    13    1
    23    13    14    1
    24     9    15    1
    25    15    16    1
    26    16     7    1
    27    23    18   ar
    28    14     9    1
    29     3     4    1
@<TRIPOS>MOLECULE
*****
 27 29 0 0 0
SMALL
GASTEIGER

@<TRIPOS>ATOM
      1 C          64.0510   83.0153   11.3295 C.2     1  UNL1        0.2252
      2 O          64.8868   82.8120   10.1007 O.2     1  UNL1       -0.2750
      3 N          62.8945   83.9701   11.3005 N.am    1  UNL1       -0.3004
      4 H          62.3459   84.1035   12.1071 H       1  UNL1        0.1497
      5 C          64.3717   82.2636   12.5875 C.3     1  UNL1        0.1154
      6 C          63.1006   80.9321   13.3881 C.3     1  UNL1        0.0335
      7 C          63.4457   82.3424   13.7648 C.3     1  UNL1        0.1377
      8 C          63.9844   83.7362   13.8954 C.3     1  UNL1        0.0613
      9 C          63.3191   84.3817   15.0748 C.3     1  UNL1        0.1290
     10 C          62.5758   84.8923   16.2734 C.3     1  UNL1        0.0305
     11 C          62.8179   86.2877   16.7677 C.3     1  UNL1        0.0025
     12 C          63.8033   87.1724   16.0634 C.3     1  UNL1        0.0002
     13 C          64.5467   86.6618   14.8648 C.3     1  UNL1        0.0025
     14 C          64.3046   85.2665   14.3705 C.3     1  UNL1        0.0305
     15 O          62.3693   83.3868   15.6731 O.3     1  UNL1       -0.2256
     16 O          62.4475   82.1264   14.8635 O.3     1  UNL1       -0.2251
     17 C          62.5738   84.7217   10.0426 C.3     1  UNL1        0.1163
     18 C          61.9212   86.0700   10.1203 C.ar    1  UNL1       -0.0024
     19 C          62.3968   87.0767   11.1255 C.ar    1  UNL1        0.0005
     20 C          61.7441   88.4250   11.2032 C.ar    1  UNL1        0.0368
     21 C          60.6160   88.7667   10.2756 C.ar    1  UNL1        0.1443
     22 C          60.1405   87.7601    9.2704 C.ar    1  UNL1        0.0368
     23 C          60.7931   86.4117    9.1927 C.ar    1  UNL1        0.0005
     24 O          59.9634   90.1151   10.3533 O.3     1  UNL1       -0.4236
     25 C          59.2223   90.5193   11.5931 C.3     1  UNL1        0.5087
     26 F          58.5180   91.8426   11.6481 F       1  UNL1       -0.1550
     27 F          59.1853   89.6003   12.7781 F       1  UNL1       -0.1550
@<TRIPOS>BOND
     1     6     7    1
     2     7     5    1
     3     5     1    1
     4     1     2    2
     5     1     3   am
     6     3    17    1
     7    17    18    1
     8    18    19   ar
     9    19    20   ar
    10    20    21   ar
    11    21    24    1
    12    24    25    1
    13    25    26    1
    14    25    27    1
    15    21    22   ar
    16    22    23   ar
    17     7     8    1
    18     8     9    1
    19     9    10    1
    20    10    11    1
    21    11    12    1
    22    12    13    1
    23    13    14    1
    24     9    15    1
    25    15    16    1
    26    16     7    1
    27    23    18   ar
    28    14     9    1
    29     3     4    1
@<TRIPOS>MOLECULE
*****
 27 29 0 0 0
SMALL
GASTEIGER

@<TRIPOS>ATOM
      1 C          62.7462   89.1707   12.6210 C.2     1  UNL1        0.2252
      2 O          62.3013   89.7500   13.9311 O.2     1  UNL1       -0.2750
      3 N          63.5204   87.8862   12.5932 N.am    1  UNL1       -0.3004
      4 H          63.8124   87.5059   11.7333 H       1  UNL1        0.1497
      5 C          62.4170   89.8759   11.3386 C.3     1  UNL1        0.1154
      6 C          60.6060   90.7381   11.2565 C.3     1  UNL1        0.0335
      7 C          61.1692   89.5201   10.5862 C.3     1  UNL1        0.1377
      8 C          61.9932   88.3765   10.0731 C.3     1  UNL1        0.0613
      9 C          61.1369   87.5685    9.1436 C.3     1  UNL1        0.1290
     10 C          60.1656   86.8632    8.2440 C.3     1  UNL1        0.0305
     11 C          60.5884   85.6279    7.5056 C.3     1  UNL1        0.0025
     12 C          61.9823   85.0979    7.6667 C.3     1  UNL1        0.0002
     13 C          62.9536   85.8032    8.5663 C.3     1  UNL1        0.0025
     14 C          62.5308   87.0385    9.3047 C.3     1  UNL1        0.0305
     15 O          59.7836   88.2127    9.0822 O.3     1  UNL1       -0.2256
     16 O          59.8036   89.4189    9.9738 O.3     1  UNL1       -0.2251
     17 C          63.8496   87.1811   13.8755 C.3     1  UNL1        0.1163
     18 C          63.7382   85.6876   13.9602 C.ar    1  UNL1       -0.0024
     19 C          64.2699   84.9627   15.1610 C.ar    1  UNL1        0.0005
     20 C          64.1585   83.4693   15.2457 C.ar    1  UNL1        0.0368
     21 C          63.5154   82.7007   14.1296 C.ar    1  UNL1        0.1443
     22 C          62.9837   83.4255   12.9289 C.ar    1  UNL1        0.0368
     23 C          63.0951   84.9190   12.8441 C.ar    1  UNL1        0.0005
     24 O          63.4040   81.2072   14.2143 O.3     1  UNL1       -0.4236
     25 C          62.2140   80.5093   13.6255 C.3     1  UNL1        0.5087
     26 F          62.3968   79.5366   12.4983 F       1  UNL1       -0.1550
     27 F          60.8411   80.7840   14.1638 F       1  UNL1       -0.1550
@<TRIPOS>BOND
     1     6     7    1
     2     7     5    1
     3     5     1    1
     4     1     2    2
     5     1     3   am
     6     3    17    1
     7    17    18    1
     8    18    19   ar
     9    19    20   ar
    10    20    21   ar
    11    21    24    1
    12    24    25    1
    13    25    26    1
    14    25    27    1
    15    21    22   ar
    16    22    23   ar
    17     7     8    1
    18     8     9    1
    19     9    10    1
    20    10    11    1
    21    11    12    1
    22    12    13    1
    23    13    14    1
    24     9    15    1
    25    15    16    1
    26    16     7    1
    27    23    18   ar
    28    14     9    1
    29     3     4    1
@<TRIPOS>MOLECULE
*****
 27 29 0 0 0
SMALL
GASTEIGER

@<TRIPOS>ATOM
      1 C          63.9113   87.0673   14.8396 C.2     1  UNL1        0.2252
      2 O          63.8557   87.4147   13.3815 O.2     1  UNL1       -0.2750
      3 N          63.5962   88.1095   15.8715 N.am    1  UNL1       -0.3004
      4 H          63.6326   87.8814   16.8285 H       1  UNL1        0.1497
      5 C          64.2819   85.6777   15.2659 C.3     1  UNL1        0.1154
      6 C          62.8494   85.0919   16.5444 C.3     1  UNL1        0.0335
      7 C          63.2657   84.5765   15.1987 C.3     1  UNL1        0.1377
      8 C          63.8944   84.2913   13.8670 C.3     1  UNL1        0.0613
      9 C          63.1797   83.1215   13.2579 C.3     1  UNL1        0.1290
     10 C          62.3756   81.9498   12.7779 C.3     1  UNL1        0.0305
     11 C          62.6782   81.3272   11.4472 C.3     1  UNL1        0.0025
     12 C          63.7849   81.8762   10.5966 C.3     1  UNL1        0.0002
     13 C          64.5891   83.0479   11.0766 C.3     1  UNL1        0.0025
     14 C          64.2865   83.6706   12.4072 C.3     1  UNL1        0.0305
     15 O          62.1093   82.6837   14.2132 O.3     1  UNL1       -0.2256
     16 O          62.1624   83.5830   15.4127 O.3     1  UNL1       -0.2251
     17 C          63.2255   89.4990   15.4451 C.3     1  UNL1        0.1163
     18 C          64.2770   90.5662   15.3706 C.ar    1  UNL1       -0.0024
     19 C          64.3903   91.5852   16.4654 C.ar    1  UNL1        0.0005
     20 C          65.4417   92.6524   16.3909 C.ar    1  UNL1        0.0368
     21 C          66.3799   92.7005   15.2215 C.ar    1  UNL1        0.1443
     22 C          66.2667   91.6815   14.1268 C.ar    1  UNL1        0.0368
     23 C          65.2152   90.6142   14.2012 C.ar    1  UNL1        0.0005
     24 O          67.4314   93.7677   15.1471 O.3     1  UNL1       -0.4236
     25 C          68.7495   93.5712   15.8355 C.3     1  UNL1        0.5087
     26 F          69.8044   94.6346   15.7535 F       1  UNL1       -0.1550
     27 F          69.0129   92.3115   16.6060 F       1  UNL1       -0.1550
@<TRIPOS>BOND
     1     6     7    1
     2     7     5    1
     3     5     1    1
     4     1     2    2
     5     1     3   am
     6     3    17    1
     7    17    18    1
     8    18    19   ar
     9    19    20   ar
    10    20    21   ar
    11    21    24    1
    12    24    25    1
    13    25    26    1
    14    25    27    1
    15    21    22   ar
    16    22    23   ar
    17     7     8    1
    18     8     9    1
    19     9    10    1
    20    10    11    1
    21    11    12    1
    22    12    13    1
    23    13    14    1
    24     9    15    1
    25    15    16    1
    26    16     7    1
    27    23    18   ar
    28    14     9    1
    29     3     4    1
@<TRIPOS>MOLECULE
*****
 27 29 0 0 0
SMALL
GASTEIGER

@<TRIPOS>ATOM
      1 C          64.1349   88.2035   15.1746 C.2     1  UNL1        0.2252
      2 O          62.9307   88.4641   16.0299 O.2     1  UNL1       -0.2750
      3 N          64.5412   86.7941   14.8606 N.am    1  UNL1       -0.3004
      4 H          65.3316   86.6231   14.2992 H       1  UNL1        0.1497
      5 C          64.9331   89.3524   14.6332 C.3     1  UNL1        0.1154
      6 C          64.9283   91.3579   14.7210 C.3     1  UNL1        0.0335
      7 C          64.2677   90.3927   13.7819 C.3     1  UNL1        0.1377
      8 C          63.7461   89.2101   13.0207 C.3     1  UNL1        0.0613
      9 C          62.8963   89.7212   11.8952 C.3     1  UNL1        0.1290
     10 C          62.0797   90.3769   10.8214 C.3     1  UNL1        0.0305
     11 C          61.3600   89.5369    9.8082 C.3     1  UNL1        0.0025
     12 C          61.4569   88.0413    9.8690 C.3     1  UNL1        0.0002
     13 C          62.2735   87.3856   10.9428 C.3     1  UNL1        0.0025
     14 C          62.9932   88.2256   11.9559 C.3     1  UNL1        0.0305
     15 O          62.8927   91.2198   11.9608 O.3     1  UNL1       -0.2256
     16 O          63.7402   91.6348   13.1268 O.3     1  UNL1       -0.2251
     17 C          63.7430   85.6453   15.4020 C.3     1  UNL1        0.1163
     18 C          63.5297   84.4195   14.5643 C.ar    1  UNL1       -0.0024
     19 C          62.4334   83.4559   14.9105 C.ar    1  UNL1        0.0005
     20 C          62.2200   82.2301   14.0727 C.ar    1  UNL1        0.0368
     21 C          63.1029   81.9678   12.8888 C.ar    1  UNL1        0.1443
     22 C          64.1991   82.9313   12.5426 C.ar    1  UNL1        0.0368
     23 C          64.4126   84.1572   13.3804 C.ar    1  UNL1        0.0005
     24 O          62.8895   80.7419   12.0511 O.3     1  UNL1       -0.4236
     25 C          63.1256   80.7948   10.5707 C.3     1  UNL1        0.5087
     26 F          62.8382   79.5917    9.7220 F       1  UNL1       -0.1550
     27 F          63.6491   82.0505    9.9390 F       1  UNL1       -0.1550
@<TRIPOS>BOND
     1     6     7    1
     2     7     5    1
     3     5     1    1
     4     1     2    2
     5     1     3   am
     6     3    17    1
     7    17    18    1
     8    18    19   ar
     9    19    20   ar
    10    20    21   ar
    11    21    24    1
    12    24    25    1
    13    25    26    1
    14    25    27    1
    15    21    22   ar
    16    22    23   ar
    17     7     8    1
    18     8     9    1
    19     9    10    1
    20    10    11    1
    21    11    12    1
    22    12    13    1
    23    13    14    1
    24     9    15    1
    25    15    16    1
    26    16     7    1
    27    23    18   ar
    28    14     9    1
    29     3     4    1
