@<TRIPOS>MOLECULE
*****
 41 46 0 0 0
SMALL
GASTEIGER

@<TRIPOS>ATOM
      1 C          62.5209   87.2513   12.0261 C.3     1  UNL1        0.0319
      2 C          62.4765   86.0481   12.9208 C.3     1  UNL1        0.0205
      3 C          63.2251   86.0520   14.2205 C.3     1  UNL1        0.0546
      4 C          64.0183   87.2590   14.6257 C.3     1  UNL1        0.0162
      5 C          64.0627   88.4622   13.7310 C.3     1  UNL1        0.0108
      6 C          63.3140   88.4583   12.4312 C.3     1  UNL1        0.0808
      7 C          59.7974   88.4983   11.8599 C.3     1  UNL1        0.0307
      8 C          60.4105   87.8709   10.6432 C.ar    1  UNL1       -0.0258
      9 C          59.6619   87.8669    9.3434 C.ar    1  UNL1       -0.0046
     10 C          60.2750   87.2395    8.1266 C.ar    1  UNL1       -0.0003
     11 C          61.6367   86.6160    8.2097 C.ar    1  UNL1       -0.0003
     12 C          62.3853   86.6199    9.5095 C.ar    1  UNL1       -0.0046
     13 C          61.7722   87.2474   10.7262 C.ar    1  UNL1       -0.0259
     14 C          63.3584   89.6614   11.5365 C.2     1  UNL1        0.2255
     15 O          62.4102   89.7711   10.3794 O.2     1  UNL1       -0.2749
     16 N          64.3511   90.7550   11.7989 N.am    1  UNL1       -0.2781
     17 C          65.4219   90.9923   12.8220 C.3     1  UNL1        0.1031
     18 C          65.7549   92.3015   12.1700 C.3     1  UNL1        0.0742
     19 C          64.6840   92.0642   11.1468 C.3     1  UNL1        0.1031
     20 C          66.0878   93.6106   11.5179 C.ar    1  UNL1       -0.0158
     21 C          66.6367   93.6352   10.1222 C.ar    1  UNL1       -0.0039
     22 C          66.9696   94.9444    9.4701 C.ar    1  UNL1       -0.0003
     23 C          66.7536   96.2290   10.2137 C.ar    1  UNL1       -0.0000
     24 C          66.2047   96.2045   11.6094 C.ar    1  UNL1       -0.0003
     25 C          65.8717   94.8953   12.2616 C.ar    1  UNL1       -0.0039
     26 C          66.8257   92.5388   13.1932 C.ar    1  UNL1       -0.0158
     27 C          68.2058   91.9931   12.9749 C.ar    1  UNL1       -0.0039
     28 C          69.2766   92.2304   13.9982 C.ar    1  UNL1       -0.0003
     29 C          68.9673   93.0134   15.2397 C.ar    1  UNL1       -0.0000
     30 C          67.5872   93.5590   15.4580 C.ar    1  UNL1       -0.0003
     31 C          66.5164   93.3217   14.4347 C.ar    1  UNL1       -0.0039
     32 N          63.1807   84.8488   15.1152 N.3     1  UNL1       -0.2948
     33 H          62.2175   84.5133   15.1098 H       1  UNL1        0.1235
     34 C          64.0535   83.6644   14.8232 C.3     1  UNL1        0.0956
     35 C          63.7735   82.8031   13.6275 C.ar    1  UNL1       -0.0063
     36 C          62.9416   81.5635   13.7744 C.ar    1  UNL1       -0.0021
     37 C          62.6616   80.7021   12.5787 C.ar    1  UNL1        0.0111
     38 C          63.2135   81.0804   11.2361 C.ar    1  UNL1        0.0577
     39 CL         62.9335   80.2191   10.0404 Cl      1  UNL1       -0.0822
     40 C          64.0453   82.3199   11.0893 C.ar    1  UNL1        0.0111
     41 C          64.3253   83.1813   12.2850 C.ar    1  UNL1       -0.0021
@<TRIPOS>BOND
     1     7     8    1
     2     8     9   ar
     3     9    10   ar
     4    10    11   ar
     5    11    12   ar
     6    12    13   ar
     7     1    13    1
     8     1     2    1
     9     2     3    1
    10     3    32    1
    11    32    34    1
    12    34    35    1
    13    35    36   ar
    14    36    37   ar
    15    37    38   ar
    16    38    39    1
    17    38    40   ar
    18    40    41   ar
    19     3     4    1
    20     4     5    1
    21     5     6    1
    22     6    14    1
    23    14    15    2
    24    14    16   am
    25    16    17    1
    26    17    18    1
    27    18    20    1
    28    20    21   ar
    29    21    22   ar
    30    22    23   ar
    31    23    24   ar
    32    24    25   ar
    33    18    26    1
    34    26    27   ar
    35    27    28   ar
    36    28    29   ar
    37    29    30   ar
    38    30    31   ar
    39    18    19    1
    40    13     8   ar
    41     6     1    1
    42    19    16    1
    43    41    35   ar
    44    25    20   ar
    45    31    26   ar
    46    32    33    1
@<TRIPOS>MOLECULE
*****
 41 46 0 0 0
SMALL
GASTEIGER

@<TRIPOS>ATOM
      1 C          61.9438   88.1319   11.0829 C.3     1  UNL1        0.0319
      2 C          61.2702   87.7008    9.8138 C.3     1  UNL1        0.0205
      3 C          60.5643   88.7110    8.9588 C.3     1  UNL1        0.0546
      4 C          60.5320   90.1525    9.3728 C.3     1  UNL1        0.0162
      5 C          61.2055   90.5836   10.6419 C.3     1  UNL1        0.0108
      6 C          61.9114   89.5732   11.4969 C.3     1  UNL1        0.0808
      7 C          61.6533   85.2044   10.4952 C.3     1  UNL1        0.0307
      8 C          62.5044   85.6579   11.6441 C.ar    1  UNL1       -0.0258
      9 C          63.2103   84.6476   12.4991 C.ar    1  UNL1       -0.0046
     10 C          64.0615   85.1011   13.6480 C.ar    1  UNL1       -0.0003
     11 C          64.2067   86.5648   13.9418 C.ar    1  UNL1       -0.0003
     12 C          63.5008   87.5751   13.0868 C.ar    1  UNL1       -0.0046
     13 C          62.6497   87.1216   11.9379 C.ar    1  UNL1       -0.0259
     14 C          62.5850   90.0043   12.7659 C.2     1  UNL1        0.2255
     15 O          61.9881   89.6402   14.0930 O.2     1  UNL1       -0.2749
     16 N          63.8556   90.7996   12.7079 N.am    1  UNL1       -0.2781
     17 C          64.7226   91.3346   11.6071 C.3     1  UNL1        0.1031
     18 C          65.6524   91.9242   12.6260 C.3     1  UNL1        0.0742
     19 C          64.7852   91.3892   13.7268 C.3     1  UNL1        0.1031
     20 C          66.5820   92.5139   13.6447 C.ar    1  UNL1       -0.0158
     21 C          66.5835   93.9935   13.8913 C.ar    1  UNL1       -0.0039
     22 C          67.5132   94.5831   14.9101 C.ar    1  UNL1       -0.0003
     23 C          68.4413   93.6932   15.6824 C.ar    1  UNL1       -0.0000
     24 C          68.4398   92.2136   15.4360 C.ar    1  UNL1       -0.0003
     25 C          67.5102   91.6239   14.4171 C.ar    1  UNL1       -0.0039
     26 C          66.5195   92.4592   11.5250 C.ar    1  UNL1       -0.0158
     27 C          67.7907   91.7514   11.1604 C.ar    1  UNL1       -0.0039
     28 C          68.6578   92.2864   10.0595 C.ar    1  UNL1       -0.0003
     29 C          68.2535   93.5292    9.3233 C.ar    1  UNL1       -0.0000
     30 C          66.9822   94.2370    9.6879 C.ar    1  UNL1       -0.0003
     31 C          66.1152   93.7020   10.7888 C.ar    1  UNL1       -0.0039
     32 N          59.8908   88.2799    7.6898 N.3     1  UNL1       -0.2948
     33 H          59.5045   87.3517    7.8620 H       1  UNL1        0.1235
     34 C          58.7835   89.1088    7.1094 C.3     1  UNL1        0.0956
     35 C          59.0882   90.1423    6.0658 C.ar    1  UNL1       -0.0063
     36 C          60.5004   90.3482    5.6040 C.ar    1  UNL1       -0.0021
     37 C          60.8051   91.3818    4.5604 C.ar    1  UNL1        0.0111
     38 C          59.6974   92.2094    3.9787 C.ar    1  UNL1        0.0577
     39 CL         60.0021   93.2430    2.9352 Cl      1  UNL1       -0.0822
     40 C          58.2853   92.0035    4.4406 C.ar    1  UNL1        0.0111
     41 C          57.9806   90.9699    5.4841 C.ar    1  UNL1       -0.0021
@<TRIPOS>BOND
     1     7     8    1
     2     8     9   ar
     3     9    10   ar
     4    10    11   ar
     5    11    12   ar
     6    12    13   ar
     7     1    13    1
     8     1     2    1
     9     2     3    1
    10     3    32    1
    11    32    34    1
    12    34    35    1
    13    35    36   ar
    14    36    37   ar
    15    37    38   ar
    16    38    39    1
    17    38    40   ar
    18    40    41   ar
    19     3     4    1
    20     4     5    1
    21     5     6    1
    22     6    14    1
    23    14    15    2
    24    14    16   am
    25    16    17    1
    26    17    18    1
    27    18    20    1
    28    20    21   ar
    29    21    22   ar
    30    22    23   ar
    31    23    24   ar
    32    24    25   ar
    33    18    26    1
    34    26    27   ar
    35    27    28   ar
    36    28    29   ar
    37    29    30   ar
    38    30    31   ar
    39    18    19    1
    40    13     8   ar
    41     6     1    1
    42    19    16    1
    43    41    35   ar
    44    25    20   ar
    45    31    26   ar
    46    32    33    1
@<TRIPOS>MOLECULE
*****
 41 46 0 0 0
SMALL
GASTEIGER

@<TRIPOS>ATOM
      1 C          61.4793   92.8864    2.6755 C.3     1  UNL1        0.0319
      2 C          61.6420   91.7433    3.6331 C.3     1  UNL1        0.0205
      3 C          60.4802   91.2935    4.4684 C.3     1  UNL1        0.0546
      4 C          59.1556   91.9869    4.3462 C.3     1  UNL1        0.0162
      5 C          58.9929   93.1299    3.3886 C.3     1  UNL1        0.0108
      6 C          60.1549   93.5797    2.5533 C.3     1  UNL1        0.0808
      7 C          61.6679   92.0584   -0.2018 C.3     1  UNL1        0.0307
      8 C          62.7355   92.9222    0.4016 C.ar    1  UNL1       -0.0258
      9 C          63.8974   93.3720   -0.4337 C.ar    1  UNL1       -0.0046
     10 C          64.9651   94.2357    0.1697 C.ar    1  UNL1       -0.0003
     11 C          64.8708   94.6497    1.6083 C.ar    1  UNL1       -0.0003
     12 C          63.7089   94.1999    2.4436 C.ar    1  UNL1       -0.0046
     13 C          62.6413   93.3362    1.8402 C.ar    1  UNL1       -0.0259
     14 C          59.9922   94.7228    1.5957 C.2     1  UNL1        0.2255
     15 O          60.5678   96.0674    1.9282 O.2     1  UNL1       -0.2749
     16 N          59.2539   94.5212    0.3056 N.am    1  UNL1       -0.2781
     17 C          58.5633   93.3632   -0.3514 C.3     1  UNL1        0.1031
     18 C          58.2098   94.2362   -1.5188 C.3     1  UNL1        0.0742
     19 C          58.9004   95.3943   -0.8617 C.3     1  UNL1        0.1031
     20 C          57.8564   95.1093   -2.6861 C.ar    1  UNL1       -0.0158
     21 C          56.4728   95.6760   -2.8072 C.ar    1  UNL1       -0.0039
     22 C          56.1194   96.5491   -3.9745 C.ar    1  UNL1       -0.0003
     23 C          57.1494   96.8555   -5.0209 C.ar    1  UNL1       -0.0000
     24 C          58.5330   96.2888   -4.9000 C.ar    1  UNL1       -0.0003
     25 C          58.8865   95.4157   -3.7326 C.ar    1  UNL1       -0.0039
     26 C          57.5191   93.0780   -2.1759 C.ar    1  UNL1       -0.0158
     27 C          58.0906   92.4741   -3.4243 C.ar    1  UNL1       -0.0039
     28 C          57.3999   91.3159   -4.0813 C.ar    1  UNL1       -0.0003
     29 C          56.1378   90.7618   -3.4897 C.ar    1  UNL1       -0.0000
     30 C          55.5663   91.3657   -2.2413 C.ar    1  UNL1       -0.0003
     31 C          56.2570   92.5239   -1.5843 C.ar    1  UNL1       -0.0039
     32 N          60.6428   90.1505    5.4259 N.3     1  UNL1       -0.2948
     33 H          61.5166   90.3088    5.9277 H       1  UNL1        0.1235
     34 C          59.5909   89.8841    6.4615 C.3     1  UNL1        0.0956
     35 C          59.9126   89.0366    7.6566 C.ar    1  UNL1       -0.0063
     36 C          60.5070   89.6639    8.8827 C.ar    1  UNL1       -0.0021
     37 C          60.8287   88.8164   10.0779 C.ar    1  UNL1        0.0111
     38 C          60.5559   87.3417   10.0469 C.ar    1  UNL1        0.0577
     39 CL         60.8776   86.4943   11.2420 Cl      1  UNL1       -0.0822
     40 C          59.9615   86.7145    8.8208 C.ar    1  UNL1        0.0111
     41 C          59.6398   87.5620    7.6257 C.ar    1  UNL1       -0.0021
@<TRIPOS>BOND
     1     7     8    1
     2     8     9   ar
     3     9    10   ar
     4    10    11   ar
     5    11    12   ar
     6    12    13   ar
     7     1    13    1
     8     1     2    1
     9     2     3    1
    10     3    32    1
    11    32    34    1
    12    34    35    1
    13    35    36   ar
    14    36    37   ar
    15    37    38   ar
    16    38    39    1
    17    38    40   ar
    18    40    41   ar
    19     3     4    1
    20     4     5    1
    21     5     6    1
    22     6    14    1
    23    14    15    2
    24    14    16   am
    25    16    17    1
    26    17    18    1
    27    18    20    1
    28    20    21   ar
    29    21    22   ar
    30    22    23   ar
    31    23    24   ar
    32    24    25   ar
    33    18    26    1
    34    26    27   ar
    35    27    28   ar
    36    28    29   ar
    37    29    30   ar
    38    30    31   ar
    39    18    19    1
    40    13     8   ar
    41     6     1    1
    42    19    16    1
    43    41    35   ar
    44    25    20   ar
    45    31    26   ar
    46    32    33    1
@<TRIPOS>MOLECULE
*****
 41 46 0 0 0
SMALL
GASTEIGER

@<TRIPOS>ATOM
      1 C          62.2314   88.1997   12.1170 C.3     1  UNL1        0.0319
      2 C          61.3640   87.7854   10.9655 C.3     1  UNL1        0.0205
      3 C          60.5420   88.8087   10.2395 C.3     1  UNL1        0.0546
      4 C          60.5872   90.2464   10.6651 C.3     1  UNL1        0.0162
      5 C          61.4545   90.6607   11.8167 C.3     1  UNL1        0.0108
      6 C          62.2766   89.6373   12.5426 C.3     1  UNL1        0.0808
      7 C          61.9804   85.2957   11.4071 C.3     1  UNL1        0.0307
      8 C          62.9280   85.7244   12.4880 C.ar    1  UNL1       -0.0258
      9 C          63.7501   84.7011   13.2139 C.ar    1  UNL1       -0.0046
     10 C          64.6977   85.1298   14.2948 C.ar    1  UNL1       -0.0003
     11 C          64.8232   86.5818   14.6498 C.ar    1  UNL1       -0.0003
     12 C          64.0011   87.6050   13.9239 C.ar    1  UNL1       -0.0046
     13 C          63.0535   87.1764   12.8430 C.ar    1  UNL1       -0.0259
     14 C          63.1440   90.0517   13.6942 C.2     1  UNL1        0.2255
     15 O          62.7759   89.6519   15.0922 O.2     1  UNL1       -0.2749
     16 N          64.3795   90.8658   13.4476 N.am    1  UNL1       -0.2781
     17 C          65.0493   91.4355   12.2324 C.3     1  UNL1        0.1031
     18 C          66.1268   92.0171   13.0990 C.3     1  UNL1        0.0742
     19 C          65.4569   91.4474   14.3142 C.3     1  UNL1        0.1031
     20 C          67.2042   92.5987   13.9655 C.ar    1  UNL1       -0.0158
     21 C          68.5222   91.8948   14.0974 C.ar    1  UNL1       -0.0039
     22 C          69.5996   92.4764   14.9640 C.ar    1  UNL1       -0.0003
     23 C          69.3590   93.7618   15.6986 C.ar    1  UNL1       -0.0000
     24 C          68.0410   94.4657   15.5667 C.ar    1  UNL1       -0.0003
     25 C          66.9636   93.8842   14.7001 C.ar    1  UNL1       -0.0039
     26 C          66.7966   92.5868   11.8837 C.ar    1  UNL1       -0.0158
     27 C          67.8553   91.7980   11.1717 C.ar    1  UNL1       -0.0039
     28 C          68.5251   92.3678    9.9564 C.ar    1  UNL1       -0.0003
     29 C          68.1361   93.7263    9.4533 C.ar    1  UNL1       -0.0000
     30 C          67.0773   94.5151   10.1653 C.ar    1  UNL1       -0.0003
     31 C          66.4076   93.9453   11.3805 C.ar    1  UNL1       -0.0039
     32 N          59.6746   88.3944    9.0880 N.3     1  UNL1       -0.2948
     33 H          60.0964   88.7860    8.2459 H       1  UNL1        0.1235
     34 C          59.4346   86.9390    8.8154 C.3     1  UNL1        0.0956
     35 C          60.4239   86.1545    8.0056 C.ar    1  UNL1       -0.0063
     36 C          59.9664   85.3880    6.8001 C.ar    1  UNL1       -0.0021
     37 C          60.9557   84.6035    5.9902 C.ar    1  UNL1        0.0111
     38 C          62.4025   84.5856    6.3858 C.ar    1  UNL1        0.0577
     39 CL         63.3918   83.8011    5.5759 Cl      1  UNL1       -0.0822
     40 C          62.8600   85.3522    7.5912 C.ar    1  UNL1        0.0111
     41 C          61.8707   86.1366    8.4011 C.ar    1  UNL1       -0.0021
@<TRIPOS>BOND
     1     7     8    1
     2     8     9   ar
     3     9    10   ar
     4    10    11   ar
     5    11    12   ar
     6    12    13   ar
     7     1    13    1
     8     1     2    1
     9     2     3    1
    10     3    32    1
    11    32    34    1
    12    34    35    1
    13    35    36   ar
    14    36    37   ar
    15    37    38   ar
    16    38    39    1
    17    38    40   ar
    18    40    41   ar
    19     3     4    1
    20     4     5    1
    21     5     6    1
    22     6    14    1
    23    14    15    2
    24    14    16   am
    25    16    17    1
    26    17    18    1
    27    18    20    1
    28    20    21   ar
    29    21    22   ar
    30    22    23   ar
    31    23    24   ar
    32    24    25   ar
    33    18    26    1
    34    26    27   ar
    35    27    28   ar
    36    28    29   ar
    37    29    30   ar
    38    30    31   ar
    39    18    19    1
    40    13     8   ar
    41     6     1    1
    42    19    16    1
    43    41    35   ar
    44    25    20   ar
    45    31    26   ar
    46    32    33    1
