@<TRIPOS>MOLECULE
*****
 33 37 0 0 0
SMALL
GASTEIGER

@<TRIPOS>ATOM
      1 C          62.7226   87.4255   11.6840 C.2     1  UNL1        0.2507
      2 O          63.7065   87.8318   12.7408 O.2     1  UNL1       -0.2698
      3 N          61.6142   88.3574   11.2932 N.am    1  UNL1       -0.2723
      4 C          60.6302   87.9510   10.2364 C.3     1  UNL1        0.1257
      5 C          59.5217   88.8831    9.8456 C.3     1  UNL1        0.1637
      6 O          59.3972   90.2213   10.5115 O.3     1  UNL1       -0.3502
      7 C          60.3812   90.6277   11.5682 C.3     1  UNL1        0.1622
      8 C          61.4896   89.6957   11.9591 C.3     1  UNL1        0.1096
      9 C          62.8375   84.6370    8.8624 C.ar    1  UNL1        0.0687
     10 C          63.0962   83.4106    9.6863 C.ar    1  UNL1        0.0119
     11 C          63.2304   83.5224   11.1761 C.ar    1  UNL1        0.0217
     12 C          63.1059   84.8606   11.8420 C.ar    1  UNL1        0.1073
     13 C          62.8471   86.0871   11.0181 C.ar    1  UNL1        0.0736
     14 C          62.7129   85.9753    9.5283 C.ar    1  UNL1        0.0164
     15 N          63.2401   84.9724   13.3318 N.ar    1  UNL1       -0.1477
     16 N          62.1320   84.8182   14.3309 N.ar    1  UNL1       -0.1447
     17 C          62.7130   85.0086   15.7007 C.ar    1  UNL1        0.1446
     18 C          64.1802   85.2804   15.5481 C.ar    1  UNL1        0.1446
     19 N          64.5060   85.2581   14.0841 N.ar    1  UNL1       -0.1447
     20 N          62.5691   84.4134    5.8828 N.1     1  UNL1       -0.1908
     21 C          62.7033   84.5252    7.3726 C.1     1  UNL1        0.1004
     22 C          62.4736   90.1021   13.0159 C.3     1  UNL1        0.0488
     23 C          63.6651   90.9365   12.6501 C.ar    1  UNL1       -0.0189
     24 C          63.8325   91.4289   11.2432 C.ar    1  UNL1       -0.0041
     25 C          65.0242   92.2633   10.8773 C.ar    1  UNL1        0.0013
     26 C          66.0484   92.6054   11.9185 C.ar    1  UNL1        0.0209
     27 C          65.8809   92.1129   13.3255 C.ar    1  UNL1        0.1026
     28 C          64.6893   91.2785   13.6913 C.ar    1  UNL1        0.0167
     29 N          66.9051   92.4550   14.3667 N.ar    1  UNL1       -0.1478
     30 N          67.4176   93.8291   14.6814 N.ar    1  UNL1       -0.1447
     31 C          68.4259   93.7064   15.7852 C.ar    1  UNL1        0.1446
     32 C          68.5366   92.2563   16.1527 C.ar    1  UNL1        0.1446
     33 N          67.5967   91.4828   15.2760 N.ar    1  UNL1       -0.1447
@<TRIPOS>BOND
     1    20    21    3
     2    21     9    1
     3     9    10   ar
     4    10    11   ar
     5    11    12   ar
     6    12    15    1
     7    15    16   ar
     8    16    17   ar
     9    17    18   ar
    10    18    19   ar
    11    12    13   ar
    12    13     1    1
    13     1     2    2
    14     1     3   am
    15     3     4    1
    16     4     5    1
    17     5     6    1
    18     6     7    1
    19     7     8    1
    20     8    22    1
    21    22    23    1
    22    23    24   ar
    23    24    25   ar
    24    25    26   ar
    25    26    27   ar
    26    27    29    1
    27    29    30   ar
    28    30    31   ar
    29    31    32   ar
    30    32    33   ar
    31    27    28   ar
    32    13    14   ar
    33    14     9   ar
    34    19    15   ar
    35     8     3    1
    36    28    23   ar
    37    33    29   ar
@<TRIPOS>MOLECULE
*****
 33 37 0 0 0
SMALL
GASTEIGER

@<TRIPOS>ATOM
      1 C          62.7475   87.3174   11.8384 C.2     1  UNL1        0.2507
      2 O          63.4225   87.5000   13.1655 O.2     1  UNL1       -0.2698
      3 N          61.9387   88.4344   11.2484 N.am    1  UNL1       -0.2723
      4 C          61.2637   88.2518    9.9213 C.3     1  UNL1        0.1257
      5 C          60.4549   89.3688    9.3313 C.3     1  UNL1        0.1637
      6 O          60.3210   90.6684   10.0683 O.3     1  UNL1       -0.3502
      7 C          60.9960   90.8510   11.3954 C.3     1  UNL1        0.1622
      8 C          61.8048   89.7340   11.9854 C.3     1  UNL1        0.1096
      9 C          62.8776   84.6853    8.8711 C.ar    1  UNL1        0.0687
     10 C          63.1490   83.4187    9.6274 C.ar    1  UNL1        0.0119
     11 C          63.2866   83.4517   11.1207 C.ar    1  UNL1        0.0217
     12 C          63.1528   84.7512   11.8577 C.ar    1  UNL1        0.1073
     13 C          62.8813   86.0178   11.1014 C.ar    1  UNL1        0.0736
     14 C          62.7438   85.9849    9.6081 C.ar    1  UNL1        0.0164
     15 N          63.2903   84.7842   13.3510 N.ar    1  UNL1       -0.1477
     16 N          62.1661   84.7165   14.3417 N.ar    1  UNL1       -0.1447
     17 C          62.7573   84.7811   15.7188 C.ar    1  UNL1        0.1446
     18 C          64.2469   84.8886   15.5792 C.ar    1  UNL1        0.1446
     19 N          64.5763   84.8905   14.1158 N.ar    1  UNL1       -0.1447
     20 N          62.6025   84.6194    5.8844 N.1     1  UNL1       -0.1908
     21 C          62.7400   84.6524    7.3778 C.1     1  UNL1        0.1004
     22 C          62.4798   89.9166   13.3125 C.3     1  UNL1        0.0488
     23 C          63.8053   90.6143   13.3900 C.ar    1  UNL1       -0.0189
     24 C          64.6679   90.4527   14.6064 C.ar    1  UNL1       -0.0041
     25 C          65.9935   91.1504   14.6840 C.ar    1  UNL1        0.0013
     26 C          66.4565   92.0098   13.5451 C.ar    1  UNL1        0.0209
     27 C          65.5939   92.1714   12.3286 C.ar    1  UNL1        0.1026
     28 C          64.2683   91.4737   12.2511 C.ar    1  UNL1        0.0167
     29 N          66.0568   93.0308   11.1897 N.ar    1  UNL1       -0.1478
     30 N          65.5924   94.4257   10.8922 N.ar    1  UNL1       -0.1447
     31 C          66.3141   94.9032    9.6669 C.ar    1  UNL1        0.1446
     32 C          67.2245   93.8033    9.2071 C.ar    1  UNL1        0.1446
     33 N          67.0656   92.6461   10.1482 N.ar    1  UNL1       -0.1447
@<TRIPOS>BOND
     1    20    21    3
     2    21     9    1
     3     9    10   ar
     4    10    11   ar
     5    11    12   ar
     6    12    15    1
     7    15    16   ar
     8    16    17   ar
     9    17    18   ar
    10    18    19   ar
    11    12    13   ar
    12    13     1    1
    13     1     2    2
    14     1     3   am
    15     3     4    1
    16     4     5    1
    17     5     6    1
    18     6     7    1
    19     7     8    1
    20     8    22    1
    21    22    23    1
    22    23    24   ar
    23    24    25   ar
    24    25    26   ar
    25    26    27   ar
    26    27    29    1
    27    29    30   ar
    28    30    31   ar
    29    31    32   ar
    30    32    33   ar
    31    27    28   ar
    32    13    14   ar
    33    14     9   ar
    34    19    15   ar
    35     8     3    1
    36    28    23   ar
    37    33    29   ar
@<TRIPOS>MOLECULE
*****
 33 37 0 0 0
SMALL
GASTEIGER

@<TRIPOS>ATOM
      1 C          62.8599   86.0094   12.7916 C.2     1  UNL1        0.2507
      2 O          63.3581   86.9291   13.8668 O.2     1  UNL1       -0.2698
      3 N          62.3042   86.5755   11.5186 N.am    1  UNL1       -0.2723
      4 C          61.8059   85.6559   10.4434 C.3     1  UNL1        0.1257
      5 C          61.2502   86.2221    9.1703 C.3     1  UNL1        0.1637
      6 O          61.1927   87.7078    8.9725 O.3     1  UNL1       -0.3502
      7 C          61.6910   88.6275   10.0477 C.3     1  UNL1        0.1622
      8 C          62.2467   88.0614   11.3207 C.3     1  UNL1        0.1096
      9 C          63.0492   82.1253   11.9992 C.ar    1  UNL1        0.0687
     10 C          63.0323   81.5521   13.3852 C.ar    1  UNL1        0.0119
     11 C          62.9579   82.4646   14.5734 C.ar    1  UNL1        0.0217
     12 C          62.9004   83.9504   14.3756 C.ar    1  UNL1        0.1073
     13 C          62.9173   84.5236   12.9895 C.ar    1  UNL1        0.0736
     14 C          62.9917   83.6110   11.8014 C.ar    1  UNL1        0.0164
     15 N          62.8261   84.8629   15.5637 N.ar    1  UNL1       -0.1477
     16 N          61.5709   85.3337   16.2367 N.ar    1  UNL1       -0.1447
     17 C          61.9629   86.2267   17.3764 C.ar    1  UNL1        0.1446
     18 C          63.4604   86.3077   17.4079 C.ar    1  UNL1        0.1446
     19 N          63.9938   85.4649   16.2876 N.ar    1  UNL1       -0.1447
     20 N          63.1979   80.3002    9.6229 N.1     1  UNL1       -0.1908
     21 C          63.1235   81.2128   10.8111 C.1     1  UNL1        0.1004
     22 C          62.7450   88.9810   12.3959 C.3     1  UNL1        0.0488
     23 C          63.5886   90.1679   12.0361 C.ar    1  UNL1       -0.0189
     24 C          63.4040   90.8449   10.7104 C.ar    1  UNL1       -0.0041
     25 C          64.2477   92.0319   10.3505 C.ar    1  UNL1        0.0013
     26 C          65.2759   92.5417   11.3164 C.ar    1  UNL1        0.0209
     27 C          65.4604   91.8646   12.6421 C.ar    1  UNL1        0.1026
     28 C          64.6168   90.6777   13.0019 C.ar    1  UNL1        0.0167
     29 N          66.4886   92.3744   13.6080 N.ar    1  UNL1       -0.1478
     30 N          66.2207   93.2283   14.8117 N.ar    1  UNL1       -0.1447
     31 C          67.5318   93.5015   15.4874 C.ar    1  UNL1        0.1446
     32 C          68.6100   92.8165   14.7012 C.ar    1  UNL1        0.1446
     33 N          67.9654   92.1199   13.5396 N.ar    1  UNL1       -0.1447
@<TRIPOS>BOND
     1    20    21    3
     2    21     9    1
     3     9    10   ar
     4    10    11   ar
     5    11    12   ar
     6    12    15    1
     7    15    16   ar
     8    16    17   ar
     9    17    18   ar
    10    18    19   ar
    11    12    13   ar
    12    13     1    1
    13     1     2    2
    14     1     3   am
    15     3     4    1
    16     4     5    1
    17     5     6    1
    18     6     7    1
    19     7     8    1
    20     8    22    1
    21    22    23    1
    22    23    24   ar
    23    24    25   ar
    24    25    26   ar
    25    26    27   ar
    26    27    29    1
    27    29    30   ar
    28    30    31   ar
    29    31    32   ar
    30    32    33   ar
    31    27    28   ar
    32    13    14   ar
    33    14     9   ar
    34    19    15   ar
    35     8     3    1
    36    28    23   ar
    37    33    29   ar
@<TRIPOS>MOLECULE
*****
 33 37 0 0 0
SMALL
GASTEIGER

@<TRIPOS>ATOM
      1 C          62.4003   84.7521   12.1774 C.2     1  UNL1        0.2507
      2 O          61.8781   85.7867   13.1297 O.2     1  UNL1       -0.2698
      3 N          62.5958   85.0952   10.7304 N.am    1  UNL1       -0.2723
      4 C          63.1181   84.0606    9.7782 C.3     1  UNL1        0.1257
      5 C          63.3136   84.4038    8.3310 C.3     1  UNL1        0.1637
      6 O          62.9868   85.7816    7.8362 O.3     1  UNL1       -0.3502
      7 C          62.4645   86.8162    8.7885 C.3     1  UNL1        0.1622
      8 C          62.2691   86.4731   10.2355 C.3     1  UNL1        0.1096
      9 C          62.9390   80.8207   12.2427 C.ar    1  UNL1        0.0687
     10 C          63.3806   80.6186   13.6619 C.ar    1  UNL1        0.0119
     11 C          63.4955   81.7943   14.5863 C.ar    1  UNL1        0.0217
     12 C          63.1688   83.1721   14.0915 C.ar    1  UNL1        0.1073
     13 C          62.7271   83.3742   12.6723 C.ar    1  UNL1        0.0736
     14 C          62.6122   82.1985   11.7480 C.ar    1  UNL1        0.0164
     15 N          63.2837   84.3479   15.0158 N.ar    1  UNL1       -0.1477
     16 N          64.4222   85.3233   15.0644 N.ar    1  UNL1       -0.1447
     17 C          64.1224   86.3329   16.1325 C.ar    1  UNL1        0.1446
     18 C          62.7986   85.9814   16.7441 C.ar    1  UNL1        0.1446
     19 N          62.2803   84.7546   16.0540 N.ar    1  UNL1       -0.1447
     20 N          62.7091   78.4692   10.3940 N.1     1  UNL1       -0.1908
     21 C          62.8240   79.6449   11.3184 C.1     1  UNL1        0.1004
     22 C          61.7468   87.5077   11.1878 C.3     1  UNL1        0.0488
     23 C          62.3922   88.8601   11.2537 C.ar    1  UNL1       -0.0189
     24 C          62.4586   89.7200   10.0265 C.ar    1  UNL1       -0.0041
     25 C          63.1040   91.0726   10.0924 C.ar    1  UNL1        0.0013
     26 C          63.6829   91.5650   11.3856 C.ar    1  UNL1        0.0209
     27 C          63.6165   90.7050   12.6128 C.ar    1  UNL1        0.1026
     28 C          62.9711   89.3526   12.5469 C.ar    1  UNL1        0.0167
     29 N          64.1955   91.1975   13.9060 N.ar    1  UNL1       -0.1478
     30 N          65.5209   91.8791   14.0757 N.ar    1  UNL1       -0.1447
     31 C          65.6953   92.1977   15.5311 C.ar    1  UNL1        0.1446
     32 C          64.4777   91.7131   16.2608 C.ar    1  UNL1        0.1446
     33 N          63.5507   91.0949   15.2565 N.ar    1  UNL1       -0.1447
@<TRIPOS>BOND
     1    20    21    3
     2    21     9    1
     3     9    10   ar
     4    10    11   ar
     5    11    12   ar
     6    12    15    1
     7    15    16   ar
     8    16    17   ar
     9    17    18   ar
    10    18    19   ar
    11    12    13   ar
    12    13     1    1
    13     1     2    2
    14     1     3   am
    15     3     4    1
    16     4     5    1
    17     5     6    1
    18     6     7    1
    19     7     8    1
    20     8    22    1
    21    22    23    1
    22    23    24   ar
    23    24    25   ar
    24    25    26   ar
    25    26    27   ar
    26    27    29    1
    27    29    30   ar
    28    30    31   ar
    29    31    32   ar
    30    32    33   ar
    31    27    28   ar
    32    13    14   ar
    33    14     9   ar
    34    19    15   ar
    35     8     3    1
    36    28    23   ar
    37    33    29   ar
@<TRIPOS>MOLECULE
*****
 33 37 0 0 0
SMALL
GASTEIGER

@<TRIPOS>ATOM
      1 C          63.5137   87.0718   13.5564 C.2     1  UNL1        0.2507
      2 O          63.9975   87.7958   14.7778 O.2     1  UNL1       -0.2698
      3 N          63.0172   87.8473   12.3723 N.am    1  UNL1       -0.2723
      4 C          62.5334   87.1232   11.1509 C.3     1  UNL1        0.1257
      5 C          62.0368   87.8987    9.9668 C.3     1  UNL1        0.1637
      6 O          62.0240   89.3982   10.0041 O.3     1  UNL1       -0.3502
      7 C          62.5078   90.1222   11.2255 C.3     1  UNL1        0.1622
      8 C          63.0044   89.3468   12.4096 C.3     1  UNL1        0.1096
      9 C          63.8814   83.3572   12.2087 C.ar    1  UNL1        0.0687
     10 C          63.5522   82.5734   13.4445 C.ar    1  UNL1        0.0119
     11 C          63.2102   83.2891   14.7176 C.ar    1  UNL1        0.0217
     12 C          63.1974   84.7885   14.7549 C.ar    1  UNL1        0.1073
     13 C          63.5266   85.5723   13.5191 C.ar    1  UNL1        0.0736
     14 C          63.8686   84.8566   12.2460 C.ar    1  UNL1        0.0164
     15 N          62.8553   85.5042   16.0280 N.ar    1  UNL1       -0.1477
     16 N          63.8295   85.9506   17.0777 N.ar    1  UNL1       -0.1447
     17 C          63.0553   86.6214   18.1734 C.ar    1  UNL1        0.1446
     18 C          61.6026   86.5896   17.8010 C.ar    1  UNL1        0.1446
     19 N          61.4791   85.8992   16.4751 N.ar    1  UNL1       -0.1447
     20 N          64.5655   81.9258    9.6625 N.1     1  UNL1       -0.1908
     21 C          64.2235   82.6415   10.9356 C.1     1  UNL1        0.1004
     22 C          63.4881   90.0708   13.6309 C.3     1  UNL1        0.0488
     23 C          64.7607   90.8630   13.5784 C.ar    1  UNL1       -0.0189
     24 C          65.7712   90.7328   14.6792 C.ar    1  UNL1       -0.0041
     25 C          67.0439   91.5251   14.6267 C.ar    1  UNL1        0.0013
     26 C          67.3060   92.4475   13.4732 C.ar    1  UNL1        0.0209
     27 C          66.2955   92.5777   12.3723 C.ar    1  UNL1        0.1026
     28 C          65.0229   91.7854   12.4249 C.ar    1  UNL1        0.0167
     29 N          66.5576   93.5001   11.2189 N.ar    1  UNL1       -0.1478
     30 N          65.7677   94.7279   10.8746 N.ar    1  UNL1       -0.1447
     31 C          66.3776   95.3433    9.6501 C.ar    1  UNL1        0.1446
     32 C          67.5444   94.4958    9.2376 C.ar    1  UNL1        0.1446
     33 N          67.6558   93.3566   10.2071 N.ar    1  UNL1       -0.1447
@<TRIPOS>BOND
     1    20    21    3
     2    21     9    1
     3     9    10   ar
     4    10    11   ar
     5    11    12   ar
     6    12    15    1
     7    15    16   ar
     8    16    17   ar
     9    17    18   ar
    10    18    19   ar
    11    12    13   ar
    12    13     1    1
    13     1     2    2
    14     1     3   am
    15     3     4    1
    16     4     5    1
    17     5     6    1
    18     6     7    1
    19     7     8    1
    20     8    22    1
    21    22    23    1
    22    23    24   ar
    23    24    25   ar
    24    25    26   ar
    25    26    27   ar
    26    27    29    1
    27    29    30   ar
    28    30    31   ar
    29    31    32   ar
    30    32    33   ar
    31    27    28   ar
    32    13    14   ar
    33    14     9   ar
    34    19    15   ar
    35     8     3    1
    36    28    23   ar
    37    33    29   ar
@<TRIPOS>MOLECULE
*****
 33 37 0 0 0
SMALL
GASTEIGER

@<TRIPOS>ATOM
      1 C          62.5003   88.1838   10.8173 C.2     1  UNL1        0.2507
      2 O          62.9478   89.6048   10.6428 O.2     1  UNL1       -0.2698
      3 N          62.9292   87.4054   12.0256 N.am    1  UNL1       -0.2723
      4 C          62.4817   85.9844   12.2001 C.3     1  UNL1        0.1257
      5 C          62.9107   85.2060   13.4085 C.3     1  UNL1        0.1637
      6 O          63.7872   85.8486   14.4423 O.3     1  UNL1       -0.3502
      7 C          64.2348   87.2696   14.2678 C.3     1  UNL1        0.1622
      8 C          63.8058   88.0480   13.0595 C.3     1  UNL1        0.1096
      9 C          61.3315   85.9202    7.7742 C.ar    1  UNL1        0.0687
     10 C          59.8708   86.2560    7.7158 C.ar    1  UNL1        0.0119
     11 C          59.2865   87.2344    8.6912 C.ar    1  UNL1        0.0217
     12 C          60.1630   87.8770    9.7250 C.ar    1  UNL1        0.1073
     13 C          61.6237   87.5412    9.7835 C.ar    1  UNL1        0.0736
     14 C          62.2080   86.5628    8.8080 C.ar    1  UNL1        0.0164
     15 N          59.5787   88.8553   10.7005 N.ar    1  UNL1       -0.1477
     16 N          59.0232   88.5257   12.0542 N.ar    1  UNL1       -0.1447
     17 C          58.5485   89.8018   12.6838 C.ar    1  UNL1        0.1446
     18 C          58.8107   90.9201   11.7191 C.ar    1  UNL1        0.1446
     19 N          59.4474   90.3351   10.4934 N.ar    1  UNL1       -0.1447
     20 N          62.5000   83.9635    5.8234 N.1     1  UNL1       -0.1908
     21 C          61.9158   84.9418    6.7988 C.1     1  UNL1        0.1004
     22 C          64.2533   89.4690   12.8849 C.3     1  UNL1        0.0488
     23 C          64.5333   90.3202   14.0878 C.ar    1  UNL1       -0.0189
     24 C          63.5146   90.4284   15.1835 C.ar    1  UNL1       -0.0041
     25 C          63.7945   91.2797   16.3864 C.ar    1  UNL1        0.0013
     26 C          65.0931   92.0228   16.4936 C.ar    1  UNL1        0.0209
     27 C          66.1118   91.9146   15.3979 C.ar    1  UNL1        0.1026
     28 C          65.8319   91.0633   14.1950 C.ar    1  UNL1        0.0167
     29 N          67.4104   92.6577   15.5050 N.ar    1  UNL1       -0.1478
     30 N          68.6583   92.3692   14.7244 N.ar    1  UNL1       -0.1447
     31 C          69.7083   93.3529   15.1486 C.ar    1  UNL1        0.1446
     32 C          69.1092   94.2494   16.1914 C.ar    1  UNL1        0.1446
     33 N          67.6890   93.8198   16.4117 N.ar    1  UNL1       -0.1447
@<TRIPOS>BOND
     1    20    21    3
     2    21     9    1
     3     9    10   ar
     4    10    11   ar
     5    11    12   ar
     6    12    15    1
     7    15    16   ar
     8    16    17   ar
     9    17    18   ar
    10    18    19   ar
    11    12    13   ar
    12    13     1    1
    13     1     2    2
    14     1     3   am
    15     3     4    1
    16     4     5    1
    17     5     6    1
    18     6     7    1
    19     7     8    1
    20     8    22    1
    21    22    23    1
    22    23    24   ar
    23    24    25   ar
    24    25    26   ar
    25    26    27   ar
    26    27    29    1
    27    29    30   ar
    28    30    31   ar
    29    31    32   ar
    30    32    33   ar
    31    27    28   ar
    32    13    14   ar
    33    14     9   ar
    34    19    15   ar
    35     8     3    1
    36    28    23   ar
    37    33    29   ar
@<TRIPOS>MOLECULE
*****
 33 37 0 0 0
SMALL
GASTEIGER

@<TRIPOS>ATOM
      1 C          62.9519   88.8288   12.2234 C.2     1  UNL1        0.2507
      2 O          62.8752   87.5231   12.9577 O.2     1  UNL1       -0.2698
      3 N          62.1102   89.0531   11.0022 N.am    1  UNL1       -0.2723
      4 C          62.1869   90.3588   10.2680 C.3     1  UNL1        0.1257
      5 C          61.3451   90.5831    9.0467 C.3     1  UNL1        0.1637
      6 O          60.4268   89.5016    8.5599 O.3     1  UNL1       -0.3502
      7 C          60.3502   88.1959    9.2941 C.3     1  UNL1        0.1622
      8 C          61.1918   87.9716   10.5153 C.3     1  UNL1        0.1096
      9 C          65.1396   92.1392   12.2971 C.ar    1  UNL1        0.0687
     10 C          65.7069   92.0732   13.6841 C.ar    1  UNL1        0.0119
     11 C          65.3559   90.9258   14.5842 C.ar    1  UNL1        0.0217
     12 C          64.4375   89.8443   14.0973 C.ar    1  UNL1        0.1073
     13 C          63.8702   89.9103   12.7103 C.ar    1  UNL1        0.0736
     14 C          64.2212   91.0577   11.8102 C.ar    1  UNL1        0.0164
     15 N          64.0865   88.6969   14.9974 N.ar    1  UNL1       -0.1477
     16 N          63.1339   88.7438   16.1551 N.ar    1  UNL1       -0.1447
     17 C          63.0851   87.3770   16.7711 C.ar    1  UNL1        0.1446
     18 C          64.0076   86.4852   15.9940 C.ar    1  UNL1        0.1446
     19 N          64.6265   87.3010   14.8979 N.ar    1  UNL1       -0.1447
     20 N          65.8416   94.4341   10.4969 N.1     1  UNL1       -0.1908
     21 C          65.4906   93.2866   11.3970 C.1     1  UNL1        0.1004
     22 C          61.1152   86.6658   11.2496 C.3     1  UNL1        0.0488
     23 C          61.9889   85.5195   10.8344 C.ar    1  UNL1       -0.0189
     24 C          62.7043   85.5607    9.5166 C.ar    1  UNL1       -0.0041
     25 C          63.5781   84.4143    9.1013 C.ar    1  UNL1        0.0013
     26 C          63.7364   83.2267   10.0039 C.ar    1  UNL1        0.0209
     27 C          63.0210   83.1856   11.3217 C.ar    1  UNL1        0.1026
     28 C          62.1472   84.3319   11.7369 C.ar    1  UNL1        0.0167
     29 N          63.1793   81.9980   12.2242 N.ar    1  UNL1       -0.1478
     30 N          64.0853   81.9113   13.4165 N.ar    1  UNL1       -0.1447
     31 C          63.9254   80.5483   14.0221 C.ar    1  UNL1        0.1446
     32 C          62.9206   79.7926   13.2041 C.ar    1  UNL1        0.1446
     33 N          62.4594   80.6885   12.0929 N.ar    1  UNL1       -0.1447
@<TRIPOS>BOND
     1    20    21    3
     2    21     9    1
     3     9    10   ar
     4    10    11   ar
     5    11    12   ar
     6    12    15    1
     7    15    16   ar
     8    16    17   ar
     9    17    18   ar
    10    18    19   ar
    11    12    13   ar
    12    13     1    1
    13     1     2    2
    14     1     3   am
    15     3     4    1
    16     4     5    1
    17     5     6    1
    18     6     7    1
    19     7     8    1
    20     8    22    1
    21    22    23    1
    22    23    24   ar
    23    24    25   ar
    24    25    26   ar
    25    26    27   ar
    26    27    29    1
    27    29    30   ar
    28    30    31   ar
    29    31    32   ar
    30    32    33   ar
    31    27    28   ar
    32    13    14   ar
    33    14     9   ar
    34    19    15   ar
    35     8     3    1
    36    28    23   ar
    37    33    29   ar
@<TRIPOS>MOLECULE
*****
 33 37 0 0 0
SMALL
GASTEIGER

@<TRIPOS>ATOM
      1 C          63.3192   88.0600   13.2344 C.2     1  UNL1        0.2507
      2 O          63.5837   89.1854   12.2787 O.2     1  UNL1       -0.2698
      3 N          63.2959   88.3202   14.7115 N.am    1  UNL1       -0.2723
      4 C          63.0313   87.1948   15.6672 C.3     1  UNL1        0.1257
      5 C          63.0081   87.4550   17.1443 C.3     1  UNL1        0.1637
      6 O          63.2493   88.8407   17.6656 O.3     1  UNL1       -0.3502
      7 C          63.5138   89.9661   16.7099 C.3     1  UNL1        0.1622
      8 C          63.5371   89.7059   15.2328 C.3     1  UNL1        0.1096
      9 C          63.4782   84.1117   12.8652 C.ar    1  UNL1        0.0687
     10 C          62.5956   83.9030   11.6705 C.ar    1  UNL1        0.0119
     11 C          61.9541   85.0799   10.9971 C.ar    1  UNL1        0.0217
     12 C          62.1953   86.4655   11.5184 C.ar    1  UNL1        0.1073
     13 C          63.0779   86.6743   12.7131 C.ar    1  UNL1        0.0736
     14 C          63.7193   85.4974   13.3865 C.ar    1  UNL1        0.0164
     15 N          61.5539   87.6424   10.8449 N.ar    1  UNL1       -0.1477
     16 N          60.3654   88.4065   11.3485 N.ar    1  UNL1       -0.1447
     17 C          60.0653   89.4982   10.3645 C.ar    1  UNL1        0.1446
     18 C          61.0684   89.4088    9.2528 C.ar    1  UNL1        0.1446
     19 N          61.9884   88.2619    9.5498 N.ar    1  UNL1       -0.1447
     20 N          64.7610   81.7579   14.2120 N.1     1  UNL1       -0.1908
     21 C          64.1196   82.9348   13.5386 C.1     1  UNL1        0.1004
     22 C          63.8016   90.8313   14.2771 C.3     1  UNL1        0.0488
     23 C          65.2047   91.3131   14.0556 C.ar    1  UNL1       -0.0189
     24 C          66.2165   91.2078   15.1579 C.ar    1  UNL1       -0.0041
     25 C          67.6198   91.6896   14.9365 C.ar    1  UNL1        0.0013
     26 C          68.0111   92.2766   13.6128 C.ar    1  UNL1        0.0209
     27 C          66.9992   92.3819   12.5105 C.ar    1  UNL1        0.1026
     28 C          65.5960   91.9001   12.7319 C.ar    1  UNL1        0.0167
     29 N          67.3905   92.9689   11.1867 N.ar    1  UNL1       -0.1478
     30 N          67.0146   94.3297   10.6800 N.ar    1  UNL1       -0.1447
     31 C          67.6182   94.5000    9.3174 C.ar    1  UNL1        0.1446
     32 C          68.3671   93.2444    8.9820 C.ar    1  UNL1        0.1446
     33 N          68.2265   92.2981   10.1373 N.ar    1  UNL1       -0.1447
@<TRIPOS>BOND
     1    20    21    3
     2    21     9    1
     3     9    10   ar
     4    10    11   ar
     5    11    12   ar
     6    12    15    1
     7    15    16   ar
     8    16    17   ar
     9    17    18   ar
    10    18    19   ar
    11    12    13   ar
    12    13     1    1
    13     1     2    2
    14     1     3   am
    15     3     4    1
    16     4     5    1
    17     5     6    1
    18     6     7    1
    19     7     8    1
    20     8    22    1
    21    22    23    1
    22    23    24   ar
    23    24    25   ar
    24    25    26   ar
    25    26    27   ar
    26    27    29    1
    27    29    30   ar
    28    30    31   ar
    29    31    32   ar
    30    32    33   ar
    31    27    28   ar
    32    13    14   ar
    33    14     9   ar
    34    19    15   ar
    35     8     3    1
    36    28    23   ar
    37    33    29   ar
@<TRIPOS>MOLECULE
*****
 33 37 0 0 0
SMALL
GASTEIGER

@<TRIPOS>ATOM
      1 C          62.4974   88.5968   11.4228 C.2     1  UNL1        0.2507
      2 O          62.5041   90.0968   11.4356 O.2     1  UNL1       -0.2698
      3 N          63.1845   87.8344   12.5166 N.am    1  UNL1       -0.2723
      4 C          63.1777   86.3344   12.5038 C.3     1  UNL1        0.1257
      5 C          63.8649   85.5720   13.5977 C.3     1  UNL1        0.1637
      6 O          64.5587   86.3094   14.7043 O.3     1  UNL1       -0.3502
      7 C          64.5655   87.8093   14.7171 C.3     1  UNL1        0.1622
      8 C          63.8784   88.5718   13.6233 C.3     1  UNL1        0.1096
      9 C          61.8736   86.1467    8.3637 C.ar    1  UNL1        0.0687
     10 C          60.4158   86.3845    8.1028 C.ar    1  UNL1        0.0119
     11 C          59.6518   87.3598    8.9485 C.ar    1  UNL1        0.0217
     12 C          60.3456   88.0972   10.0551 C.ar    1  UNL1        0.1073
     13 C          61.8034   87.8594   10.3161 C.ar    1  UNL1        0.0736
     14 C          62.5674   86.8841    9.4704 C.ar    1  UNL1        0.0164
     15 N          59.5816   89.0724   10.9008 N.ar    1  UNL1       -0.1477
     16 N          59.3958   90.5327   10.6128 N.ar    1  UNL1       -0.1447
     17 C          58.5686   91.1215   11.7170 C.ar    1  UNL1        0.1446
     18 C          58.2433   90.0250   12.6875 C.ar    1  UNL1        0.1446
     19 N          58.8693   88.7586   12.1831 N.ar    1  UNL1       -0.1447
     20 N          63.4016   84.1962    6.6723 N.1     1  UNL1       -0.1908
     21 C          62.6376   85.1715    7.5180 C.1     1  UNL1        0.1004
     22 C          63.8851   90.0717   13.6361 C.3     1  UNL1        0.0488
     23 C          65.1871   90.8161   13.6092 C.ar    1  UNL1       -0.0189
     24 C          66.1032   90.7678   14.7959 C.ar    1  UNL1       -0.0041
     25 C          67.4052   91.5122   14.7691 C.ar    1  UNL1        0.0013
     26 C          67.7910   92.3050   13.5555 C.ar    1  UNL1        0.0209
     27 C          66.8748   92.3533   12.3688 C.ar    1  UNL1        0.1026
     28 C          65.5729   91.6089   12.3957 C.ar    1  UNL1        0.0167
     29 N          67.2606   93.1460   11.1552 N.ar    1  UNL1       -0.1478
     30 N          66.9092   94.5800   10.8905 N.ar    1  UNL1       -0.1447
     31 C          67.4969   94.9642    9.5650 C.ar    1  UNL1        0.1446
     32 C          68.2116   93.7676    9.0105 C.ar    1  UNL1        0.1446
     33 N          68.0656   92.6439    9.9933 N.ar    1  UNL1       -0.1447
@<TRIPOS>BOND
     1    20    21    3
     2    21     9    1
     3     9    10   ar
     4    10    11   ar
     5    11    12   ar
     6    12    15    1
     7    15    16   ar
     8    16    17   ar
     9    17    18   ar
    10    18    19   ar
    11    12    13   ar
    12    13     1    1
    13     1     2    2
    14     1     3   am
    15     3     4    1
    16     4     5    1
    17     5     6    1
    18     6     7    1
    19     7     8    1
    20     8    22    1
    21    22    23    1
    22    23    24   ar
    23    24    25   ar
    24    25    26   ar
    25    26    27   ar
    26    27    29    1
    27    29    30   ar
    28    30    31   ar
    29    31    32   ar
    30    32    33   ar
    31    27    28   ar
    32    13    14   ar
    33    14     9   ar
    34    19    15   ar
    35     8     3    1
    36    28    23   ar
    37    33    29   ar
