@<TRIPOS>MOLECULE
*****
 39 42 0 0 0
SMALL
GASTEIGER

@<TRIPOS>ATOM
      1 C          64.3325   90.7476   13.9055 C.3     1  UNL1        0.1225
      2 O          63.7819   91.6426   12.8351 O.3     1  UNL1       -0.3559
      3 C          63.0114   91.0556   11.6898 C.3     1  UNL1        0.1441
      4 C          62.7914   89.5738   11.6149 C.3     1  UNL1        0.0589
      5 C          63.3420   88.6788   12.6854 C.3     1  UNL1        0.1466
      6 C          63.1220   87.1969   12.6105 C.ar    1  UNL1        0.0618
      7 C          62.3514   86.6099   11.4652 C.ar    1  UNL1        0.1407
      8 F          61.6788   87.1893   10.2561 F       1  UNL1       -0.2043
      9 C          62.1314   85.1281   11.3904 C.ar    1  UNL1        0.0319
     10 C          62.6820   84.2331   12.4609 C.ar    1  UNL1        0.0351
     11 C          63.4526   84.8200   13.6062 C.ar    1  UNL1        0.1737
     12 F          64.0032   83.9251   14.6766 F       1  UNL1       -0.2010
     13 C          63.6726   86.3020   13.6810 C.ar    1  UNL1        0.1655
     14 O          64.4431   86.8889   14.8263 O.3     1  UNL1       -0.4732
     15 C          64.6631   88.3708   14.9012 C.3     1  UNL1        0.2098
     16 C          64.1125   89.2658   13.8307 C.3     1  UNL1        0.0957
     17 S          62.5714   88.0919   11.5401 S.O2    1  UNL1        0.0094
     18 O          62.9823   87.7525   10.9473 O.2     1  UNL1       -0.1684
     19 O          61.1375   88.3489   11.8977 O.2     1  UNL1       -0.1684
     20 C          61.8008   87.5050   10.3947 C.ar    1  UNL1        0.1059
     21 C          62.5248   86.7956    9.2889 C.ar    1  UNL1        0.0192
     22 C          61.7542   86.2087    8.1436 C.ar    1  UNL1        0.0127
     23 C          60.2597   86.3311    8.1041 C.ar    1  UNL1        0.0578
     24 CL         59.4891   85.7441    6.9588 Cl      1  UNL1       -0.0822
     25 C          59.5358   87.0404    9.2099 C.ar    1  UNL1        0.0127
     26 C          60.3064   87.6273   10.3552 C.ar    1  UNL1        0.0192
     27 C          65.1031   91.3346   15.0508 C.3     1  UNL1        0.0550
     28 C          66.4309   91.9877   14.8051 C.3     1  UNL1        0.1533
     29 S          66.6744   92.7341   13.5270 S.O2    1  UNL1       -0.0099
     30 O          65.8631   93.8847   14.0443 O.2     1  UNL1       -0.1730
     31 O          67.4858   91.5834   13.0096 O.2     1  UNL1       -0.1730
     32 C          66.9180   93.4804   12.2489 C.3     1  UNL1        0.1522
     33 C          67.2063   92.7276   10.9839 C.3     1  UNL1        0.0397
     34 C          67.4311   93.4733    9.7020 C.3     1  UNL1        0.0437
     35 C          66.5416   94.5786   10.1889 C.3     1  UNL1        0.0158
     36 C          68.3207   92.3680    9.2151 C.3     1  UNL1        0.0158
     37 C          67.3724   95.6901    8.3485 C.3     1  UNL1        0.0858
     38 N          67.6560   94.2190    8.4200 N.3     1  UNL1       -0.2984
     39 H          68.6389   94.0963    8.1766 H       1  UNL1        0.1232
@<TRIPOS>BOND
     1    37    38    1
     2    38    34    1
     3    34    35    1
     4    34    36    1
     5    34    33    1
     6    33    32    1
     7    32    29    1
     8    29    30    2
     9    29    31    2
    10    29    28    1
    11    28    27    1
    12     1    27    1
    13     1     2    1
    14     2     3    1
    15     3     4    1
    16     4     5    1
    17     5    17    1
    18    17    18    2
    19    17    19    2
    20    17    20    1
    21    20    21   ar
    22    21    22   ar
    23    22    23   ar
    24    23    24    1
    25    23    25   ar
    26    25    26   ar
    27     5     6    1
    28     6     7   ar
    29     7     8    1
    30     7     9   ar
    31     9    10   ar
    32    10    11   ar
    33    11    12    1
    34    11    13   ar
    35    13    14    1
    36    14    15    1
    37    16    15    1
    38    16     1    1
    39    16     5    1
    40    26    20   ar
    41    13     6   ar
    42    38    39    1
@<TRIPOS>MOLECULE
*****
 39 42 0 0 0
SMALL
GASTEIGER

@<TRIPOS>ATOM
      1 C          63.8922   89.3084   14.2366 C.3     1  UNL1        0.1225
      2 O          64.5479   88.3076   15.1413 O.3     1  UNL1       -0.3559
      3 C          64.5136   86.8484   14.7956 C.3     1  UNL1        0.1441
      4 C          63.8237   86.3900   13.5451 C.3     1  UNL1        0.0589
      5 C          63.1680   87.3907   12.6404 C.3     1  UNL1        0.1466
      6 C          62.4780   86.9323   11.3898 C.ar    1  UNL1        0.0618
      7 C          62.4437   85.4731   11.0440 C.ar    1  UNL1        0.1407
      8 F          62.9788   84.2342   11.6989 F       1  UNL1       -0.2043
      9 C          61.7538   85.0146    9.7936 C.ar    1  UNL1        0.0319
     10 C          61.0981   86.0154    8.8888 C.ar    1  UNL1        0.0351
     11 C          61.1324   87.4746    9.2345 C.ar    1  UNL1        0.1737
     12 F          60.4767   88.4753    8.3298 F       1  UNL1       -0.2010
     13 C          61.8223   87.9330   10.4851 C.ar    1  UNL1        0.1655
     14 O          61.8566   89.3922   10.8308 O.3     1  UNL1       -0.4732
     15 C          62.5466   89.8507   12.0813 C.3     1  UNL1        0.2098
     16 C          63.2023   88.8499   12.9861 C.3     1  UNL1        0.0957
     17 S          63.1337   85.9315   12.2946 S.O2    1  UNL1        0.0094
     18 O          63.8287   85.5545   12.1931 O.2     1  UNL1       -0.1684
     19 O          61.6706   85.6051   12.2425 O.2     1  UNL1       -0.1684
     20 C          63.0995   84.4723   11.9488 C.ar    1  UNL1        0.1059
     21 C          63.9178   83.9535   10.8038 C.ar    1  UNL1        0.0192
     22 C          63.8836   82.4943   10.4580 C.ar    1  UNL1        0.0127
     23 C          63.0309   81.5539   11.2573 C.ar    1  UNL1        0.0578
     24 CL         62.9967   80.0947   10.9116 Cl      1  UNL1       -0.0822
     25 C          62.2126   82.0728   12.4023 C.ar    1  UNL1        0.0127
     26 C          62.2469   83.5320   12.7481 C.ar    1  UNL1        0.0192
     27 C          63.9265   90.7676   14.5824 C.3     1  UNL1        0.0550
     28 C          65.2300   91.4275   14.9220 C.3     1  UNL1        0.1533
     29 S          66.1299   91.9183   13.8268 S.O2    1  UNL1       -0.0099
     30 O          67.3291   91.4992   14.6245 O.2     1  UNL1       -0.1730
     31 O          64.9306   92.3374   13.0292 O.2     1  UNL1       -0.1730
     32 C          67.0298   92.4091   12.7317 C.3     1  UNL1        0.1522
     33 C          66.4834   92.6228   11.3512 C.3     1  UNL1        0.0397
     34 C          67.2691   93.4137   10.3477 C.3     1  UNL1        0.0437
     35 C          66.5319   94.6565   10.7500 C.3     1  UNL1        0.0158
     36 C          68.0064   92.1709    9.9454 C.3     1  UNL1        0.0158
     37 C          67.3449   95.1030    8.3753 C.3     1  UNL1        0.0858
     38 N          68.0549   94.2047    9.3442 N.3     1  UNL1       -0.2984
     39 H          68.6999   94.7924    9.8724 H       1  UNL1        0.1232
@<TRIPOS>BOND
     1    37    38    1
     2    38    34    1
     3    34    35    1
     4    34    36    1
     5    34    33    1
     6    33    32    1
     7    32    29    1
     8    29    30    2
     9    29    31    2
    10    29    28    1
    11    28    27    1
    12     1    27    1
    13     1     2    1
    14     2     3    1
    15     3     4    1
    16     4     5    1
    17     5    17    1
    18    17    18    2
    19    17    19    2
    20    17    20    1
    21    20    21   ar
    22    21    22   ar
    23    22    23   ar
    24    23    24    1
    25    23    25   ar
    26    25    26   ar
    27     5     6    1
    28     6     7   ar
    29     7     8    1
    30     7     9   ar
    31     9    10   ar
    32    10    11   ar
    33    11    12    1
    34    11    13   ar
    35    13    14    1
    36    14    15    1
    37    16    15    1
    38    16     1    1
    39    16     5    1
    40    26    20   ar
    41    13     6   ar
    42    38    39    1
@<TRIPOS>MOLECULE
*****
 39 42 0 0 0
SMALL
GASTEIGER

@<TRIPOS>ATOM
      1 C          59.8128   88.7507    8.0226 C.3     1  UNL1        0.1225
      2 O          59.5219   87.3969    7.4459 O.3     1  UNL1       -0.3559
      3 C          60.1143   86.1707    8.0748 C.3     1  UNL1        0.1441
      4 C          60.9978   86.2983    9.2802 C.3     1  UNL1        0.0589
      5 C          61.2887   87.6520    9.8569 C.3     1  UNL1        0.1466
      6 C          62.1722   87.7797   11.0624 C.ar    1  UNL1        0.0618
      7 C          62.7647   86.5535   11.6913 C.ar    1  UNL1        0.1407
      8 F          62.6885   85.0864   11.3879 F       1  UNL1       -0.2043
      9 C          63.6481   86.6811   12.8967 C.ar    1  UNL1        0.0319
     10 C          63.9391   88.0349   13.4734 C.ar    1  UNL1        0.0351
     11 C          63.3467   89.2611   12.8446 C.ar    1  UNL1        0.1737
     12 F          63.6376   90.6149   13.4213 F       1  UNL1       -0.2010
     13 C          62.4632   89.1335   11.6391 C.ar    1  UNL1        0.1655
     14 O          61.8707   90.3596   11.0103 O.3     1  UNL1       -0.4732
     15 C          60.9873   90.2321    9.8048 C.3     1  UNL1        0.2098
     16 C          60.6963   88.8782    9.2281 C.3     1  UNL1        0.0957
     17 S          61.8812   86.4258   10.4857 S.O2    1  UNL1        0.0094
     18 O          62.5176   86.0964   10.1365 O.2     1  UNL1       -0.1684
     19 O          61.0144   86.1777   11.6845 O.2     1  UNL1       -0.1684
     20 C          62.4737   85.1996   11.1145 C.ar    1  UNL1        0.1059
     21 C          61.9874   84.7347   12.4553 C.ar    1  UNL1        0.0192
     22 C          62.5798   83.5086   13.0841 C.ar    1  UNL1        0.0127
     23 C          63.6586   82.7472   12.3722 C.ar    1  UNL1        0.0578
     24 CL         64.2511   81.5210   13.0010 Cl      1  UNL1       -0.0822
     25 C          64.1449   83.2121   11.0315 C.ar    1  UNL1        0.0127
     26 C          63.5524   84.4383   10.4027 C.ar    1  UNL1        0.0192
     27 C          59.2204   89.9769    7.3938 C.3     1  UNL1        0.0550
     28 C          58.7171   89.9270    5.9816 C.3     1  UNL1        0.1533
     29 S          58.9952   91.0656    5.0456 S.O2    1  UNL1       -0.0099
     30 O          57.5258   91.3546    4.9605 O.2     1  UNL1       -0.1730
     31 O          60.4647   90.7766    5.1307 O.2     1  UNL1       -0.1730
     32 C          59.2734   92.2042    4.1096 C.3     1  UNL1        0.1522
     33 C          60.6791   92.4863    3.6685 C.3     1  UNL1        0.0397
     34 C          60.9805   92.6995    2.2147 C.3     1  UNL1        0.0437
     35 C          59.5364   93.0167    1.9618 C.3     1  UNL1        0.0158
     36 C          62.4246   92.3822    2.4676 C.3     1  UNL1        0.0158
     37 C          60.4195   92.2717   -0.2858 C.3     1  UNL1        0.0858
     38 N          61.2819   92.9126    0.7608 N.3     1  UNL1       -0.2984
     39 H          61.2452   93.9187    0.5970 H       1  UNL1        0.1232
@<TRIPOS>BOND
     1    37    38    1
     2    38    34    1
     3    34    35    1
     4    34    36    1
     5    34    33    1
     6    33    32    1
     7    32    29    1
     8    29    30    2
     9    29    31    2
    10    29    28    1
    11    28    27    1
    12     1    27    1
    13     1     2    1
    14     2     3    1
    15     3     4    1
    16     4     5    1
    17     5    17    1
    18    17    18    2
    19    17    19    2
    20    17    20    1
    21    20    21   ar
    22    21    22   ar
    23    22    23   ar
    24    23    24    1
    25    23    25   ar
    26    25    26   ar
    27     5     6    1
    28     6     7   ar
    29     7     8    1
    30     7     9   ar
    31     9    10   ar
    32    10    11   ar
    33    11    12    1
    34    11    13   ar
    35    13    14    1
    36    14    15    1
    37    16    15    1
    38    16     1    1
    39    16     5    1
    40    26    20   ar
    41    13     6   ar
    42    38    39    1
