@<TRIPOS>MOLECULE
*****
 37 40 0 0 0
SMALL
GASTEIGER

@<TRIPOS>ATOM
      1 C          66.0594   93.5174   12.9209 C.ar    1  UNL1        0.1726
      2 C          66.6599   93.0319   14.2069 C.ar    1  UNL1        0.0411
      3 C          66.2870   91.6829   14.7466 C.ar    1  UNL1        0.0180
      4 C          65.3137   90.8194   14.0003 C.ar    1  UNL1        0.0530
      5 C          64.7132   91.3049   12.7144 C.ar    1  UNL1        0.0475
      6 C          65.0860   92.6538   12.1747 C.ar    1  UNL1        0.1756
      7 F          64.4855   93.1393   10.8887 F       1  UNL1       -0.2009
      8 N          64.9409   89.4705   14.5400 N.am    1  UNL1       -0.2802
      9 C          63.8103   89.3399   15.5171 C.2     1  UNL1        0.2542
     10 O          63.0525   90.5583   15.9545 O.2     1  UNL1       -0.2696
     11 H          65.4382   88.6708   14.2530 H       1  UNL1        0.1552
     12 C          63.4375   87.9909   16.0568 C.ar    1  UNL1        0.1101
     13 C          63.0030   87.8486   17.4854 C.ar    1  UNL1        0.0109
     14 C          62.6302   86.4996   18.0252 C.ar    1  UNL1        0.0194
     15 C          62.6919   85.2930   17.1363 C.ar    1  UNL1        0.0829
     16 N          63.1264   85.4353   15.7076 N.ar    1  UNL1       -0.2730
     17 C          63.4992   86.7842   15.1679 C.ar    1  UNL1        0.2691
     18 O          63.9336   86.9266   13.7393 O.2     1  UNL1       -0.2665
     19 C          63.1880   84.2286   14.8187 C.ar    1  UNL1        0.0670
     20 C          62.0995   83.1982   14.8763 C.ar    1  UNL1        0.0199
     21 C          62.1612   81.9915   13.9874 C.ar    1  UNL1        0.0311
     22 C          63.3114   81.8152   13.0409 C.ar    1  UNL1        0.1402
     23 F          63.3732   80.6086   12.1521 F       1  UNL1       -0.2042
     24 C          64.4001   82.8457   12.9834 C.ar    1  UNL1        0.0311
     25 C          64.3383   84.0523   13.8723 C.ar    1  UNL1        0.0199
     26 O          66.4322   94.8663   12.3812 O.3     1  UNL1       -0.4505
     27 C          67.4003   94.0745   10.1040 C.ar    1  UNL1        0.1081
     28 C          66.6034   95.0619   10.9038 C.ar    1  UNL1        0.1572
     29 C          65.9777   96.2450   10.2265 C.ar    1  UNL1        0.0589
     30 C          66.1488   96.4406    8.7492 C.ar    1  UNL1        0.1035
     31 N          66.9458   95.4532    7.9493 N.ar    1  UNL1       -0.2288
     32 C          67.5715   94.2701    8.6267 C.ar    1  UNL1        0.1361
     33 N          68.3685   93.2827    7.8267 N.pl3   1  UNL1       -0.3421
     34 H          68.4808   93.4111    6.8571 H       1  UNL1        0.1437
     35 H          68.7792   92.5062    8.2713 H       1  UNL1        0.1437
     36 C          68.6518   91.7084   11.4587 C.1     1  UNL1       -0.0090
     37 C          68.0261   92.8915   10.7813 C.1     1  UNL1       -0.0453
@<TRIPOS>BOND
     1    36    37    3
     2    37    27    1
     3    27    28   ar
     4    28    26    1
     5    26     1    1
     6     1     2   ar
     7     2     3   ar
     8     3     4   ar
     9     4     8    1
    10     8     9   am
    11     9    10    2
    12     9    12    1
    13    12    13   ar
    14    13    14   ar
    15    14    15   ar
    16    15    16   ar
    17    16    19    1
    18    19    20   ar
    19    20    21   ar
    20    21    22   ar
    21    22    23    1
    22    22    24   ar
    23    24    25   ar
    24    16    17   ar
    25    17    18    2
    26     4     5   ar
    27     5     6   ar
    28     6     7    1
    29    28    29   ar
    30    29    30   ar
    31    30    31   ar
    32    31    32   ar
    33    32    33    1
    34    32    27   ar
    35     6     1   ar
    36    17    12   ar
    37    25    19   ar
    38     8    11    1
    39    33    34    1
    40    33    35    1
@<TRIPOS>MOLECULE
*****
 37 40 0 0 0
SMALL
GASTEIGER

@<TRIPOS>ATOM
      1 C          64.8391   91.9844   12.3422 C.ar    1  UNL1        0.1726
      2 C          65.1762   91.3301   13.6492 C.ar    1  UNL1        0.0411
      3 C          64.6476   89.9613   13.9611 C.ar    1  UNL1        0.0180
      4 C          63.7820   89.2469   12.9659 C.ar    1  UNL1        0.0530
      5 C          63.4449   89.9012   11.6589 C.ar    1  UNL1        0.0475
      6 C          63.9734   91.2699   11.3471 C.ar    1  UNL1        0.1756
      7 F          63.6363   91.9242   10.0401 F       1  UNL1       -0.2009
      8 N          63.2534   87.8783   13.2778 N.am    1  UNL1       -0.2802
      9 C          64.0170   86.9707   14.1962 C.2     1  UNL1        0.2542
     10 O          65.3091   87.4318   14.8026 O.2     1  UNL1       -0.2696
     11 H          62.4054   87.5756   12.8798 H       1  UNL1        0.1552
     12 C          63.4884   85.6020   14.5080 C.ar    1  UNL1        0.1101
     13 C          62.9750   85.2916   15.8828 C.ar    1  UNL1        0.0109
     14 C          62.4464   83.9229   16.1947 C.ar    1  UNL1        0.0194
     15 C          62.4312   82.8646   15.1318 C.ar    1  UNL1        0.0829
     16 N          62.9446   83.1750   13.7570 N.ar    1  UNL1       -0.2730
     17 C          63.4732   84.5437   13.4451 C.ar    1  UNL1        0.2691
     18 O          63.9866   84.8541   12.0703 O.2     1  UNL1       -0.2665
     19 C          62.9294   82.1167   12.6941 C.ar    1  UNL1        0.0670
     20 C          62.5421   80.7099   13.0419 C.ar    1  UNL1        0.0199
     21 C          62.5269   79.6516   11.9789 C.ar    1  UNL1        0.0311
     22 C          62.8991   80.0001   10.5683 C.ar    1  UNL1        0.1402
     23 F          62.8839   78.9418    9.5054 F       1  UNL1       -0.2042
     24 C          63.2864   81.4069   10.2205 C.ar    1  UNL1        0.0311
     25 C          63.3016   82.4652   11.2834 C.ar    1  UNL1        0.0199
     26 O          65.3676   93.3531   12.0303 O.3     1  UNL1       -0.4505
     27 C          66.5795   94.7384   10.1967 C.ar    1  UNL1        0.1081
     28 C          66.5025   93.5164   11.0631 C.ar    1  UNL1        0.1572
     29 C          67.5604   92.4577   10.9625 C.ar    1  UNL1        0.0589
     30 C          68.6952   92.6210    9.9954 C.ar    1  UNL1        0.1035
     31 N          68.7722   93.8430    9.1289 N.ar    1  UNL1       -0.2288
     32 C          67.7144   94.9016    9.2295 C.ar    1  UNL1        0.1361
     33 N          67.7914   96.1236    8.3630 N.pl3   1  UNL1       -0.3421
     34 H          68.5363   96.2308    7.7282 H       1  UNL1        0.1437
     35 H          67.0971   96.8185    8.4290 H       1  UNL1        0.1437
     36 C          64.4638   96.8557   10.3980 C.1     1  UNL1       -0.0090
     37 C          65.5216   95.7970   10.2973 C.1     1  UNL1       -0.0453
@<TRIPOS>BOND
     1    36    37    3
     2    37    27    1
     3    27    28   ar
     4    28    26    1
     5    26     1    1
     6     1     2   ar
     7     2     3   ar
     8     3     4   ar
     9     4     8    1
    10     8     9   am
    11     9    10    2
    12     9    12    1
    13    12    13   ar
    14    13    14   ar
    15    14    15   ar
    16    15    16   ar
    17    16    19    1
    18    19    20   ar
    19    20    21   ar
    20    21    22   ar
    21    22    23    1
    22    22    24   ar
    23    24    25   ar
    24    16    17   ar
    25    17    18    2
    26     4     5   ar
    27     5     6   ar
    28     6     7    1
    29    28    29   ar
    30    29    30   ar
    31    30    31   ar
    32    31    32   ar
    33    32    33    1
    34    32    27   ar
    35     6     1   ar
    36    17    12   ar
    37    25    19   ar
    38     8    11    1
    39    33    34    1
    40    33    35    1
@<TRIPOS>MOLECULE
*****
 37 40 0 0 0
SMALL
GASTEIGER

@<TRIPOS>ATOM
      1 C          61.8946   86.9061   11.3104 C.ar    1  UNL1        0.1726
      2 C          60.8339   86.4758   10.3410 C.ar    1  UNL1        0.0411
      3 C          60.3258   87.4388    9.3091 C.ar    1  UNL1        0.0180
      4 C          60.8784   88.8318    9.2468 C.ar    1  UNL1        0.0530
      5 C          61.9391   89.2621   10.2162 C.ar    1  UNL1        0.0475
      6 C          62.4473   88.2992   11.2480 C.ar    1  UNL1        0.1756
      7 F          63.5080   88.7294   12.2174 F       1  UNL1       -0.2009
      8 N          60.3703   89.7947    8.2149 N.am    1  UNL1       -0.2802
      9 C          59.6226   89.2861    7.0182 C.2     1  UNL1        0.2542
     10 O          59.3831   87.8146    6.8532 O.2     1  UNL1       -0.2696
     11 H          60.5275   90.7605    8.3232 H       1  UNL1        0.1552
     12 C          59.1145   90.2490    5.9863 C.ar    1  UNL1        0.1101
     13 C          57.6404   90.4888    5.8458 C.ar    1  UNL1        0.0109
     14 C          57.1323   91.4517    4.8140 C.ar    1  UNL1        0.0194
     15 C          58.0981   92.1748    3.9228 C.ar    1  UNL1        0.0829
     16 N          59.5722   91.9349    4.0634 N.ar    1  UNL1       -0.2730
     17 C          60.0803   90.9721    5.0951 C.ar    1  UNL1        0.2691
     18 O          61.5543   90.7322    5.2357 O.2     1  UNL1       -0.2665
     19 C          60.5380   92.6581    3.1721 C.ar    1  UNL1        0.0670
     20 C          61.9088   92.0955    2.9390 C.ar    1  UNL1        0.0199
     21 C          62.8747   92.8187    2.0477 C.ar    1  UNL1        0.0311
     22 C          62.4697   94.1043    1.3896 C.ar    1  UNL1        0.1402
     23 F          63.4355   94.8274    0.4984 F       1  UNL1       -0.2042
     24 C          61.0988   94.6668    1.6228 C.ar    1  UNL1        0.0311
     25 C          60.1330   93.9437    2.5140 C.ar    1  UNL1        0.0199
     26 O          62.4028   85.9432   12.3422 O.3     1  UNL1       -0.4505
     27 C          63.1429   83.5231   12.9300 C.ar    1  UNL1        0.1081
     28 C          62.9615   84.6168   11.9196 C.ar    1  UNL1        0.1572
     29 C          63.3389   84.3842   10.4866 C.ar    1  UNL1        0.0589
     30 C          63.8977   83.0579   10.0640 C.ar    1  UNL1        0.1035
     31 N          64.0790   81.9642   11.0744 N.ar    1  UNL1       -0.2288
     32 C          63.7016   82.1968   12.5074 C.ar    1  UNL1        0.1361
     33 N          63.8830   81.1030   13.5178 N.pl3   1  UNL1       -0.3421
     34 H          64.2497   80.2325   13.2404 H       1  UNL1        0.1437
     35 H          63.6353   81.2557   14.4583 H       1  UNL1        0.1437
     36 C          62.3881   83.9883   15.7960 C.1     1  UNL1       -0.0090
     37 C          62.7655   83.7557   14.3630 C.1     1  UNL1       -0.0453
@<TRIPOS>BOND
     1    36    37    3
     2    37    27    1
     3    27    28   ar
     4    28    26    1
     5    26     1    1
     6     1     2   ar
     7     2     3   ar
     8     3     4   ar
     9     4     8    1
    10     8     9   am
    11     9    10    2
    12     9    12    1
    13    12    13   ar
    14    13    14   ar
    15    14    15   ar
    16    15    16   ar
    17    16    19    1
    18    19    20   ar
    19    20    21   ar
    20    21    22   ar
    21    22    23    1
    22    22    24   ar
    23    24    25   ar
    24    16    17   ar
    25    17    18    2
    26     4     5   ar
    27     5     6   ar
    28     6     7    1
    29    28    29   ar
    30    29    30   ar
    31    30    31   ar
    32    31    32   ar
    33    32    33    1
    34    32    27   ar
    35     6     1   ar
    36    17    12   ar
    37    25    19   ar
    38     8    11    1
    39    33    34    1
    40    33    35    1
@<TRIPOS>MOLECULE
*****
 37 40 0 0 0
SMALL
GASTEIGER

@<TRIPOS>ATOM
      1 C          58.7093   89.8717    6.3427 C.ar    1  UNL1        0.1726
      2 C          60.1251   90.2097    5.9804 C.ar    1  UNL1        0.0411
      3 C          60.4047   91.2681    4.9549 C.ar    1  UNL1        0.0180
      4 C          59.2684   91.9886    4.2917 C.ar    1  UNL1        0.0530
      5 C          57.8526   91.6506    4.6539 C.ar    1  UNL1        0.0475
      6 C          57.5730   90.5922    5.6794 C.ar    1  UNL1        0.1756
      7 F          56.1572   90.2542    6.0416 F       1  UNL1       -0.2009
      8 N          59.5480   93.0469    3.2663 N.am    1  UNL1       -0.2802
      9 C          60.8957   93.1197    2.6117 C.2     1  UNL1        0.2542
     10 O          61.9638   92.1340    2.9826 O.2     1  UNL1       -0.2696
     11 H          58.8470   93.6939    3.0228 H       1  UNL1        0.1552
     12 C          61.1752   94.1782    1.5862 C.ar    1  UNL1        0.1101
     13 C          61.0636   95.6278    1.9550 C.ar    1  UNL1        0.0109
     14 C          61.3432   96.6863    0.9296 C.ar    1  UNL1        0.0194
     15 C          61.7343   96.2950   -0.4646 C.ar    1  UNL1        0.0829
     16 N          61.8459   94.8454   -0.8335 N.ar    1  UNL1       -0.2730
     17 C          61.5664   93.7869    0.1920 C.ar    1  UNL1        0.2691
     18 O          61.6780   92.3373   -0.1769 O.2     1  UNL1       -0.2665
     19 C          62.2370   94.4542   -2.2278 C.ar    1  UNL1        0.0670
     20 C          63.6071   93.9060   -2.4965 C.ar    1  UNL1        0.0199
     21 C          63.9983   93.5148   -3.8908 C.ar    1  UNL1        0.0311
     22 C          63.0193   93.6718   -5.0164 C.ar    1  UNL1        0.1402
     23 F          63.4103   93.2807   -6.4106 F       1  UNL1       -0.2042
     24 C          61.6491   94.2200   -4.7476 C.ar    1  UNL1        0.0311
     25 C          61.2580   94.6112   -3.3533 C.ar    1  UNL1        0.0199
     26 O          58.4297   88.8133    7.3681 O.3     1  UNL1       -0.4505
     27 C          60.3417   88.1396    8.9931 C.ar    1  UNL1        0.1081
     28 C          59.5127   87.8585    7.7750 C.ar    1  UNL1        0.1572
     29 C          59.7667   86.6226    6.9638 C.ar    1  UNL1        0.0589
     30 C          60.8496   85.6678    7.3706 C.ar    1  UNL1        0.1035
     31 N          61.6786   85.9489    8.5886 N.ar    1  UNL1       -0.2288
     32 C          61.4247   87.1848    9.3999 C.ar    1  UNL1        0.1361
     33 N          62.2537   87.4658   10.6180 N.pl3   1  UNL1       -0.3421
     34 H          62.9645   86.8391   10.8850 H       1  UNL1        0.1437
     35 H          62.0871   88.2770   11.1505 H       1  UNL1        0.1437
     36 C          59.8338   90.6113   10.6155 C.1     1  UNL1       -0.0090
     37 C          60.0878   89.3755    9.8043 C.1     1  UNL1       -0.0453
@<TRIPOS>BOND
     1    36    37    3
     2    37    27    1
     3    27    28   ar
     4    28    26    1
     5    26     1    1
     6     1     2   ar
     7     2     3   ar
     8     3     4   ar
     9     4     8    1
    10     8     9   am
    11     9    10    2
    12     9    12    1
    13    12    13   ar
    14    13    14   ar
    15    14    15   ar
    16    15    16   ar
    17    16    19    1
    18    19    20   ar
    19    20    21   ar
    20    21    22   ar
    21    22    23    1
    22    22    24   ar
    23    24    25   ar
    24    16    17   ar
    25    17    18    2
    26     4     5   ar
    27     5     6   ar
    28     6     7    1
    29    28    29   ar
    30    29    30   ar
    31    30    31   ar
    32    31    32   ar
    33    32    33    1
    34    32    27   ar
    35     6     1   ar
    36    17    12   ar
    37    25    19   ar
    38     8    11    1
    39    33    34    1
    40    33    35    1
@<TRIPOS>MOLECULE
*****
 37 40 0 0 0
SMALL
GASTEIGER

@<TRIPOS>ATOM
      1 C          59.2639   90.0308    5.9446 C.ar    1  UNL1        0.1726
      2 C          60.6381   90.4313    5.4962 C.ar    1  UNL1        0.0411
      3 C          60.8147   91.5996    4.5720 C.ar    1  UNL1        0.0180
      4 C          59.6171   92.3673    4.0963 C.ar    1  UNL1        0.0530
      5 C          58.2428   91.9667    4.5447 C.ar    1  UNL1        0.0475
      6 C          58.0662   90.7986    5.4688 C.ar    1  UNL1        0.1756
      7 F          56.6920   90.3980    5.9173 F       1  UNL1       -0.2009
      8 N          59.7937   93.5354    3.1721 N.am    1  UNL1       -0.2802
      9 C          60.1907   93.3083    1.7436 C.2     1  UNL1        0.2542
     10 O          60.4112   91.9130    1.2392 O.2     1  UNL1       -0.2696
     11 H          59.6490   94.4513    3.5032 H       1  UNL1        0.1552
     12 C          60.3673   94.4766    0.8194 C.ar    1  UNL1        0.1101
     13 C          59.2191   95.4054    0.5567 C.ar    1  UNL1        0.0109
     14 C          59.3957   96.5736   -0.3674 C.ar    1  UNL1        0.0194
     15 C          60.7204   96.8131   -1.0288 C.ar    1  UNL1        0.0829
     16 N          61.8687   95.8843   -0.7661 N.ar    1  UNL1       -0.2730
     17 C          61.6921   94.7161    0.1580 C.ar    1  UNL1        0.2691
     18 O          62.8404   93.7874    0.4206 O.2     1  UNL1       -0.2665
     19 C          63.1935   96.1239   -1.4276 C.ar    1  UNL1        0.0670
     20 C          64.3796   96.5319   -0.6051 C.ar    1  UNL1        0.0199
     21 C          65.7045   96.7714   -1.2666 C.ar    1  UNL1        0.0311
     22 C          65.8431   96.6029   -2.7506 C.ar    1  UNL1        0.1402
     23 F          67.1678   96.8425   -3.4121 F       1  UNL1       -0.2042
     24 C          64.6569   96.1949   -3.5732 C.ar    1  UNL1        0.0311
     25 C          63.3321   95.9554   -2.9117 C.ar    1  UNL1        0.0199
     26 O          59.0873   88.8626    6.8688 O.3     1  UNL1       -0.4505
     27 C          60.4610   87.6289    8.6966 C.ar    1  UNL1        0.1081
     28 C          59.7559   88.8608    8.2115 C.ar    1  UNL1        0.1572
     29 C          59.7194   90.0908    9.0693 C.ar    1  UNL1        0.0589
     30 C          60.3880   90.0890   10.4120 C.ar    1  UNL1        0.1035
     31 N          61.0931   88.8571   10.8970 N.ar    1  UNL1       -0.2288
     32 C          61.1296   87.6271   10.0393 C.ar    1  UNL1        0.1361
     33 N          61.8348   86.3952   10.5244 N.pl3   1  UNL1       -0.3421
     34 H          62.2736   86.3940   11.4057 H       1  UNL1        0.1437
     35 H          61.8588   85.5878    9.9614 H       1  UNL1        0.1437
     36 C          60.5341   85.1688    6.9811 C.1     1  UNL1       -0.0090
     37 C          60.4975   86.3989    7.8389 C.1     1  UNL1       -0.0453
@<TRIPOS>BOND
     1    36    37    3
     2    37    27    1
     3    27    28   ar
     4    28    26    1
     5    26     1    1
     6     1     2   ar
     7     2     3   ar
     8     3     4   ar
     9     4     8    1
    10     8     9   am
    11     9    10    2
    12     9    12    1
    13    12    13   ar
    14    13    14   ar
    15    14    15   ar
    16    15    16   ar
    17    16    19    1
    18    19    20   ar
    19    20    21   ar
    20    21    22   ar
    21    22    23    1
    22    22    24   ar
    23    24    25   ar
    24    16    17   ar
    25    17    18    2
    26     4     5   ar
    27     5     6   ar
    28     6     7    1
    29    28    29   ar
    30    29    30   ar
    31    30    31   ar
    32    31    32   ar
    33    32    33    1
    34    32    27   ar
    35     6     1   ar
    36    17    12   ar
    37    25    19   ar
    38     8    11    1
    39    33    34    1
    40    33    35    1
@<TRIPOS>MOLECULE
*****
 37 40 0 0 0
SMALL
GASTEIGER

@<TRIPOS>ATOM
      1 C          58.8263   89.9945    6.2943 C.ar    1  UNL1        0.1726
      2 C          60.2559   90.2640    5.9290 C.ar    1  UNL1        0.0411
      3 C          60.5805   91.2529    4.8488 C.ar    1  UNL1        0.0180
      4 C          59.4753   91.9723    4.1339 C.ar    1  UNL1        0.0530
      5 C          58.0456   91.7029    4.4991 C.ar    1  UNL1        0.0475
      6 C          57.7211   90.7140    5.5793 C.ar    1  UNL1        0.1756
      7 F          56.2914   90.4445    5.9445 F       1  UNL1       -0.2009
      8 N          59.7999   92.9612    3.0538 N.am    1  UNL1       -0.2802
      9 C          61.1727   92.9886    2.4498 C.2     1  UNL1        0.2542
     10 O          62.2209   92.0272    2.9261 O.2     1  UNL1       -0.2696
     11 H          59.1119   93.5922    2.7412 H       1  UNL1        0.1552
     12 C          61.4972   93.9776    1.3696 C.ar    1  UNL1        0.1101
     13 C          62.6993   94.8650    1.5017 C.ar    1  UNL1        0.0109
     14 C          63.0238   95.8539    0.4216 C.ar    1  UNL1        0.0194
     15 C          62.1463   95.9554   -0.7906 C.ar    1  UNL1        0.0829
     16 N          60.9442   95.0679   -0.9227 N.ar    1  UNL1       -0.2730
     17 C          60.6196   94.0790    0.1574 C.ar    1  UNL1        0.2691
     18 O          59.4176   93.1916    0.0253 O.2     1  UNL1       -0.2665
     19 C          60.0666   95.1694   -2.1351 C.ar    1  UNL1        0.0670
     20 C          60.1963   94.1646   -3.2411 C.ar    1  UNL1        0.0199
     21 C          59.3188   94.2661   -4.4534 C.ar    1  UNL1        0.0311
     22 C          58.3115   95.3725   -4.5596 C.ar    1  UNL1        0.1402
     23 F          57.4340   95.4740   -5.7719 F       1  UNL1       -0.2042
     24 C          58.1819   96.3774   -3.4535 C.ar    1  UNL1        0.0311
     25 C          59.0594   96.2759   -2.2413 C.ar    1  UNL1        0.0199
     26 O          58.5017   89.0057    7.3744 O.3     1  UNL1       -0.4505
     27 C          60.3357   88.1933    9.0256 C.ar    1  UNL1        0.1081
     28 C          59.5191   87.9828    7.7852 C.ar    1  UNL1        0.1572
     29 C          59.7198   86.7494    6.9555 C.ar    1  UNL1        0.0589
     30 C          60.7371   85.7265    7.3663 C.ar    1  UNL1        0.1035
     31 N          61.5537   85.9371    8.6067 N.ar    1  UNL1       -0.2288
     32 C          61.3531   87.1705    9.4364 C.ar    1  UNL1        0.1361
     33 N          62.1698   87.3810   10.6769 N.pl3   1  UNL1       -0.3421
     34 H          62.8375   86.7097   10.9465 H       1  UNL1        0.1437
     35 H          62.0381   88.1905   11.2214 H       1  UNL1        0.1437
     36 C          59.9344   90.6602   10.6850 C.1     1  UNL1       -0.0090
     37 C          60.1351   89.4268    9.8553 C.1     1  UNL1       -0.0453
@<TRIPOS>BOND
     1    36    37    3
     2    37    27    1
     3    27    28   ar
     4    28    26    1
     5    26     1    1
     6     1     2   ar
     7     2     3   ar
     8     3     4   ar
     9     4     8    1
    10     8     9   am
    11     9    10    2
    12     9    12    1
    13    12    13   ar
    14    13    14   ar
    15    14    15   ar
    16    15    16   ar
    17    16    19    1
    18    19    20   ar
    19    20    21   ar
    20    21    22   ar
    21    22    23    1
    22    22    24   ar
    23    24    25   ar
    24    16    17   ar
    25    17    18    2
    26     4     5   ar
    27     5     6   ar
    28     6     7    1
    29    28    29   ar
    30    29    30   ar
    31    30    31   ar
    32    31    32   ar
    33    32    33    1
    34    32    27   ar
    35     6     1   ar
    36    17    12   ar
    37    25    19   ar
    38     8    11    1
    39    33    34    1
    40    33    35    1
@<TRIPOS>MOLECULE
*****
 37 40 0 0 0
SMALL
GASTEIGER

@<TRIPOS>ATOM
      1 C          59.2670   90.0016    6.0383 C.ar    1  UNL1        0.1726
      2 C          60.6493   90.3897    5.6038 C.ar    1  UNL1        0.0411
      3 C          60.8407   91.5072    4.6216 C.ar    1  UNL1        0.0180
      4 C          59.6499   92.2365    4.0739 C.ar    1  UNL1        0.0530
      5 C          58.2677   91.8485    4.5084 C.ar    1  UNL1        0.0475
      6 C          58.0762   90.7311    5.4905 C.ar    1  UNL1        0.1756
      7 F          56.6939   90.3430    5.9250 F       1  UNL1       -0.2009
      8 N          59.8414   93.3539    3.0917 N.am    1  UNL1       -0.2802
      9 C          60.9122   93.2578    2.0456 C.2     1  UNL1        0.2542
     10 O          61.7914   92.0442    1.9818 O.2     1  UNL1       -0.2696
     11 H          59.2643   94.1504    3.1336 H       1  UNL1        0.1552
     12 C          61.1036   94.3753    1.0634 C.ar    1  UNL1        0.1101
     13 C          61.5180   95.7341    1.5449 C.ar    1  UNL1        0.0109
     14 C          61.7095   96.8516    0.5627 C.ar    1  UNL1        0.0194
     15 C          61.4865   96.6102   -0.9008 C.ar    1  UNL1        0.0829
     16 N          61.0721   95.2513   -1.3822 N.ar    1  UNL1       -0.2730
     17 C          60.8806   94.1339   -0.4001 C.ar    1  UNL1        0.2691
     18 O          60.4662   92.7750   -0.8815 O.2     1  UNL1       -0.2665
     19 C          60.8491   95.0100   -2.8458 C.ar    1  UNL1        0.0670
     20 C          59.4548   94.9881   -3.3985 C.ar    1  UNL1        0.0199
     21 C          59.2318   94.7467   -4.8621 C.ar    1  UNL1        0.0311
     22 C          60.4032   94.5272   -5.7730 C.ar    1  UNL1        0.1402
     23 F          60.1803   94.2859   -7.2365 F       1  UNL1       -0.2042
     24 C          61.7975   94.5491   -5.2203 C.ar    1  UNL1        0.0311
     25 C          62.0204   94.7905   -3.7567 C.ar    1  UNL1        0.0199
     26 O          59.0756   88.8842    7.0204 O.3     1  UNL1       -0.4505
     27 C          60.5625   87.6308    8.7433 C.ar    1  UNL1        0.1081
     28 C          59.8481   88.8752    8.3063 C.ar    1  UNL1        0.1572
     29 C          59.9061   90.1107    9.1549 C.ar    1  UNL1        0.0589
     30 C          60.6786   90.1017   10.4407 C.ar    1  UNL1        0.1035
     31 N          61.3930   88.8573   10.8777 N.ar    1  UNL1       -0.2288
     32 C          61.3349   87.6219   10.0290 C.ar    1  UNL1        0.1361
     33 N          62.0494   86.3774   10.4662 N.pl3   1  UNL1       -0.3421
     34 H          62.5564   86.3716   11.3101 H       1  UNL1        0.1437
     35 H          62.0113   85.5666    9.9091 H       1  UNL1        0.1437
     36 C          60.4463   85.1599    7.0459 C.1     1  UNL1       -0.0090
     37 C          60.5044   86.3954    7.8946 C.1     1  UNL1       -0.0453
@<TRIPOS>BOND
     1    36    37    3
     2    37    27    1
     3    27    28   ar
     4    28    26    1
     5    26     1    1
     6     1     2   ar
     7     2     3   ar
     8     3     4   ar
     9     4     8    1
    10     8     9   am
    11     9    10    2
    12     9    12    1
    13    12    13   ar
    14    13    14   ar
    15    14    15   ar
    16    15    16   ar
    17    16    19    1
    18    19    20   ar
    19    20    21   ar
    20    21    22   ar
    21    22    23    1
    22    22    24   ar
    23    24    25   ar
    24    16    17   ar
    25    17    18    2
    26     4     5   ar
    27     5     6   ar
    28     6     7    1
    29    28    29   ar
    30    29    30   ar
    31    30    31   ar
    32    31    32   ar
    33    32    33    1
    34    32    27   ar
    35     6     1   ar
    36    17    12   ar
    37    25    19   ar
    38     8    11    1
    39    33    34    1
    40    33    35    1
@<TRIPOS>MOLECULE
*****
 37 40 0 0 0
SMALL
GASTEIGER

@<TRIPOS>ATOM
      1 C          59.1640   89.8217    6.2302 C.ar    1  UNL1        0.1726
      2 C          60.5126   90.2655    5.7459 C.ar    1  UNL1        0.0411
      3 C          60.6232   91.3986    4.7693 C.ar    1  UNL1        0.0180
      4 C          59.3854   92.0880    4.2769 C.ar    1  UNL1        0.0530
      5 C          58.0368   91.6442    4.7612 C.ar    1  UNL1        0.0475
      6 C          57.9261   90.5112    5.7378 C.ar    1  UNL1        0.1756
      7 F          56.5776   90.0674    6.2220 F       1  UNL1       -0.2009
      8 N          59.4961   93.2211    3.3003 N.am    1  UNL1       -0.2802
      9 C          60.6991   93.3299    2.4110 C.2     1  UNL1        0.2542
     10 O          61.7914   92.3056    2.4983 O.2     1  UNL1       -0.2696
     11 H          58.7792   93.8933    3.2430 H       1  UNL1        0.1552
     12 C          60.8098   94.4630    1.4343 C.ar    1  UNL1        0.1101
     13 C          61.9643   95.4168    1.5199 C.ar    1  UNL1        0.0109
     14 C          62.0750   96.5500    0.5433 C.ar    1  UNL1        0.0194
     15 C          61.0312   96.7293   -0.5188 C.ar    1  UNL1        0.0829
     16 N          59.8766   95.7755   -0.6044 N.ar    1  UNL1       -0.2730
     17 C          59.7659   94.6424    0.3722 C.ar    1  UNL1        0.2691
     18 O          58.6114   93.6886    0.2866 O.2     1  UNL1       -0.2665
     19 C          58.8328   95.9548   -1.6666 C.ar    1  UNL1        0.0670
     20 C          59.0693   95.4211   -3.0483 C.ar    1  UNL1        0.0199
     21 C          58.0255   95.6005   -4.1105 C.ar    1  UNL1        0.0311
     22 C          56.7451   96.3136   -3.7910 C.ar    1  UNL1        0.1402
     23 F          55.7012   96.4930   -4.8531 F       1  UNL1       -0.2042
     24 C          56.5086   96.8473   -2.4092 C.ar    1  UNL1        0.0311
     25 C          57.5524   96.6679   -1.3470 C.ar    1  UNL1        0.0199
     26 O          59.0533   88.6886    7.2068 O.3     1  UNL1       -0.4505
     27 C          60.7409   87.4263    8.7262 C.ar    1  UNL1        0.1081
     28 C          59.9362   88.6543    8.4190 C.ar    1  UNL1        0.1572
     29 C          60.0144   89.8480    9.3239 C.ar    1  UNL1        0.0589
     30 C          60.8973   89.8137   10.5361 C.ar    1  UNL1        0.1035
     31 N          61.7019   88.5857   10.8433 N.ar    1  UNL1       -0.2288
     32 C          61.6237   87.3920    9.9384 C.ar    1  UNL1        0.1361
     33 N          62.4284   86.1639   10.2457 N.pl3   1  UNL1       -0.3421
     34 H          63.0079   86.1414   11.0413 H       1  UNL1        0.1437
     35 H          62.3771   85.3804    9.6518 H       1  UNL1        0.1437
     36 C          60.5845   85.0388    6.9164 C.1     1  UNL1       -0.0090
     37 C          60.6627   86.2325    7.8213 C.1     1  UNL1       -0.0453
@<TRIPOS>BOND
     1    36    37    3
     2    37    27    1
     3    27    28   ar
     4    28    26    1
     5    26     1    1
     6     1     2   ar
     7     2     3   ar
     8     3     4   ar
     9     4     8    1
    10     8     9   am
    11     9    10    2
    12     9    12    1
    13    12    13   ar
    14    13    14   ar
    15    14    15   ar
    16    15    16   ar
    17    16    19    1
    18    19    20   ar
    19    20    21   ar
    20    21    22   ar
    21    22    23    1
    22    22    24   ar
    23    24    25   ar
    24    16    17   ar
    25    17    18    2
    26     4     5   ar
    27     5     6   ar
    28     6     7    1
    29    28    29   ar
    30    29    30   ar
    31    30    31   ar
    32    31    32   ar
    33    32    33    1
    34    32    27   ar
    35     6     1   ar
    36    17    12   ar
    37    25    19   ar
    38     8    11    1
    39    33    34    1
    40    33    35    1
@<TRIPOS>MOLECULE
*****
 37 40 0 0 0
SMALL
GASTEIGER

@<TRIPOS>ATOM
      1 C          62.6405   85.2409   14.4978 C.ar    1  UNL1        0.1726
      2 C          63.0633   85.8911   13.2139 C.ar    1  UNL1        0.0411
      3 C          63.8775   87.1506   13.2436 C.ar    1  UNL1        0.0180
      4 C          64.2689   87.7598   14.5571 C.ar    1  UNL1        0.0530
      5 C          63.8462   87.1096   15.8411 C.ar    1  UNL1        0.0475
      6 C          63.0320   85.8502   15.8115 C.ar    1  UNL1        0.1756
      7 F          62.6092   85.2000   17.0954 F       1  UNL1       -0.2009
      8 N          65.0831   89.0192   14.5868 N.am    1  UNL1       -0.2802
      9 C          64.5160   90.2922   14.0319 C.2     1  UNL1        0.2542
     10 O          63.1346   90.3057   13.4474 O.2     1  UNL1       -0.2696
     11 H          65.9897   89.0103   14.9704 H       1  UNL1        0.1552
     12 C          65.3302   91.5517   14.0616 C.ar    1  UNL1        0.1101
     13 C          65.9665   92.0034   15.3426 C.ar    1  UNL1        0.0109
     14 C          66.7807   93.2627   15.3724 C.ar    1  UNL1        0.0194
     15 C          66.9587   94.0704   14.1210 C.ar    1  UNL1        0.0829
     16 N          66.3224   93.6187   12.8399 N.ar    1  UNL1       -0.2730
     17 C          65.5082   92.3593   12.8102 C.ar    1  UNL1        0.2691
     18 O          64.8719   91.9076   11.5292 O.2     1  UNL1       -0.2665
     19 C          66.5004   94.4265   11.5885 C.ar    1  UNL1        0.0670
     20 C          66.1101   95.8746   11.5688 C.ar    1  UNL1        0.0199
     21 C          66.2881   96.6824   10.3174 C.ar    1  UNL1        0.0311
     22 C          66.8564   96.0419    9.0858 C.ar    1  UNL1        0.1402
     23 F          67.0344   96.8496    7.8344 F       1  UNL1       -0.2042
     24 C          67.2467   94.5936    9.1056 C.ar    1  UNL1        0.0311
     25 C          67.0687   93.7860   10.3569 C.ar    1  UNL1        0.0199
     26 O          61.8263   83.9815   14.4682 O.3     1  UNL1       -0.4505
     27 C          62.5794   82.7626   12.3008 C.ar    1  UNL1        0.1081
     28 C          62.3618   82.7581   13.7849 C.ar    1  UNL1        0.1572
     29 C          62.6796   81.5303   14.5858 C.ar    1  UNL1        0.0589
     30 C          63.2150   80.3070   13.9026 C.ar    1  UNL1        0.1035
     31 N          63.4326   80.3115   12.4185 N.ar    1  UNL1       -0.2288
     32 C          63.1148   81.5393   11.6176 C.ar    1  UNL1        0.1361
     33 N          63.3325   81.5438   10.1334 N.pl3   1  UNL1       -0.3421
     34 H          63.6839   80.7409    9.6850 H       1  UNL1        0.1437
     35 H          63.1239   82.3497    9.6078 H       1  UNL1        0.1437
     36 C          61.9438   85.2183   10.6990 C.1     1  UNL1       -0.0090
     37 C          62.2616   83.9905   11.4999 C.1     1  UNL1       -0.0453
@<TRIPOS>BOND
     1    36    37    3
     2    37    27    1
     3    27    28   ar
     4    28    26    1
     5    26     1    1
     6     1     2   ar
     7     2     3   ar
     8     3     4   ar
     9     4     8    1
    10     8     9   am
    11     9    10    2
    12     9    12    1
    13    12    13   ar
    14    13    14   ar
    15    14    15   ar
    16    15    16   ar
    17    16    19    1
    18    19    20   ar
    19    20    21   ar
    20    21    22   ar
    21    22    23    1
    22    22    24   ar
    23    24    25   ar
    24    16    17   ar
    25    17    18    2
    26     4     5   ar
    27     5     6   ar
    28     6     7    1
    29    28    29   ar
    30    29    30   ar
    31    30    31   ar
    32    31    32   ar
    33    32    33    1
    34    32    27   ar
    35     6     1   ar
    36    17    12   ar
    37    25    19   ar
    38     8    11    1
    39    33    34    1
    40    33    35    1
