@<TRIPOS>MOLECULE
*****
 31 33 0 0 0
SMALL
GASTEIGER

@<TRIPOS>ATOM
      1 C          64.0553   90.4428   13.3655 C.ar    1  UNL1       -0.0141
      2 C          65.1285   91.4865   13.4598 C.ar    1  UNL1        0.0303
      3 C          65.3979   92.3926   12.2951 C.ar    1  UNL1        0.1319
      4 N          64.5941   92.2550   11.0362 N.ar    1  UNL1       -0.2290
      5 C          63.5209   91.2113   10.9420 C.ar    1  UNL1        0.1045
      6 C          63.2515   90.3052   12.1066 C.ar    1  UNL1        0.0686
      7 C          64.1710   88.3506   13.6965 C.3     1  UNL1        0.0044
      8 C          63.7860   89.5367   14.5302 C.3     1  UNL1        0.0192
      9 C          63.4010   90.7228   15.3639 C.3     1  UNL1        0.0044
     10 C          63.5166   88.6306   15.6949 C.3     1  UNL1        0.0044
     11 C          62.1783   89.2614   12.0124 C.2     1  UNL1        0.2471
     12 O          60.9237   89.4004   12.8228 O.2     1  UNL1       -0.2701
     13 N          62.3597   88.0788   11.1077 N.am    1  UNL1       -0.3008
     14 H          63.1831   87.9876   10.5758 H       1  UNL1        0.1497
     15 C          61.2864   87.0350   11.0134 C.3     1  UNL1        0.0898
     16 C          60.7147   86.6657    9.6767 C.3     1  UNL1        0.0246
     17 C          59.4587   87.3255    9.1901 C.3     1  UNL1        0.0338
     18 C          58.8869   86.9563    7.8533 C.3     1  UNL1        0.1422
     19 O          59.5713   85.9271    7.0033 O.3     1  UNL1       -0.3538
     20 C          60.8275   85.2673    7.4901 C.3     1  UNL1        0.1422
     21 C          61.3991   85.6366    8.8267 C.3     1  UNL1        0.0338
     22 N          66.4711   93.4363   12.3894 N.pl3   1  UNL1       -0.2973
     23 H          66.9642   93.5606   13.2324 H       1  UNL1        0.1536
     24 C          66.7930   94.2907   11.1993 C.ar    1  UNL1        0.0601
     25 C          66.3323   95.7176   11.1537 C.ar    1  UNL1        0.0164
     26 C          66.6541   96.5719    9.9635 C.ar    1  UNL1        0.0127
     27 C          67.4367   95.9995    8.8190 C.ar    1  UNL1        0.0586
     28 CL         67.7586   96.8539    7.6288 Cl      1  UNL1       -0.0822
     29 C          67.8974   94.5727    8.8646 C.ar    1  UNL1        0.0240
     30 C          67.5755   93.7184   10.0547 C.ar    1  UNL1        0.0719
     31 CL         68.0362   92.2915   10.1003 Cl      1  UNL1       -0.0809
@<TRIPOS>BOND
     1     7     8    1
     2     8     9    1
     3     8    10    1
     4     8     1    1
     5     1     2   ar
     6     2     3   ar
     7     3    22    1
     8    22    24    1
     9    24    25   ar
    10    25    26   ar
    11    26    27   ar
    12    27    28    1
    13    27    29   ar
    14    29    30   ar
    15    30    31    1
    16     3     4   ar
    17     4     5   ar
    18     5     6   ar
    19     6    11    1
    20    11    12    2
    21    11    13   am
    22    13    15    1
    23    15    16    1
    24    16    17    1
    25    17    18    1
    26    18    19    1
    27    19    20    1
    28    20    21    1
    29     6     1   ar
    30    21    16    1
    31    30    24   ar
    32    22    23    1
    33    13    14    1
@<TRIPOS>MOLECULE
*****
 31 33 0 0 0
SMALL
GASTEIGER

@<TRIPOS>ATOM
      1 C          64.0752   90.2678   13.6072 C.ar    1  UNL1       -0.0141
      2 C          65.0291   91.4194   13.7241 C.ar    1  UNL1        0.0303
      3 C          65.2957   92.2960   12.5364 C.ar    1  UNL1        0.1319
      4 N          64.6083   92.0210   11.2319 N.ar    1  UNL1       -0.2290
      5 C          63.6544   90.8693   11.1150 C.ar    1  UNL1        0.1045
      6 C          63.3879   89.9927   12.3026 C.ar    1  UNL1        0.0686
      7 C          64.6039   88.2892   14.1599 C.3     1  UNL1        0.0044
      8 C          63.8086   89.3912   14.7948 C.3     1  UNL1        0.0192
      9 C          63.0133   90.4932   15.4297 C.3     1  UNL1        0.0044
     10 C          63.5421   88.5146   15.9825 C.3     1  UNL1        0.0044
     11 C          62.4339   88.8410   12.1857 C.2     1  UNL1        0.2471
     12 O          60.9578   89.0737   12.3157 O.2     1  UNL1       -0.2701
     13 N          62.9561   87.4567   11.9388 N.am    1  UNL1       -0.3008
     14 H          63.9249   87.3040   11.8535 H       1  UNL1        0.1497
     15 C          62.0021   86.3050   11.8219 C.3     1  UNL1        0.0898
     16 C          62.4464   84.9221   12.1962 C.3     1  UNL1        0.0246
     17 C          62.7206   83.9072   11.1263 C.3     1  UNL1        0.0338
     18 C          63.1649   82.5242   11.5006 C.3     1  UNL1        0.1422
     19 O          63.3351   82.1563   12.9448 O.3     1  UNL1       -0.3538
     20 C          63.0609   83.1713   14.0147 C.3     1  UNL1        0.1422
     21 C          62.6165   84.5542   13.6404 C.3     1  UNL1        0.0338
     22 N          66.2496   93.4477   12.6533 N.pl3   1  UNL1       -0.2973
     23 H          66.6805   93.6444   13.5164 H       1  UNL1        0.1536
     24 C          66.5471   94.2998   11.4552 C.ar    1  UNL1        0.0601
     25 C          66.0230   95.7035   11.3844 C.ar    1  UNL1        0.0164
     26 C          66.3205   96.5556   10.1862 C.ar    1  UNL1        0.0127
     27 C          67.1421   96.0039    9.0589 C.ar    1  UNL1        0.0586
     28 CL         67.4396   96.8559    7.8608 Cl      1  UNL1       -0.0822
     29 C          67.6662   94.6002    9.1298 C.ar    1  UNL1        0.0240
     30 C          67.3687   93.7482   10.3279 C.ar    1  UNL1        0.0719
     31 CL         67.8928   92.3444   10.3988 Cl      1  UNL1       -0.0809
@<TRIPOS>BOND
     1     7     8    1
     2     8     9    1
     3     8    10    1
     4     8     1    1
     5     1     2   ar
     6     2     3   ar
     7     3    22    1
     8    22    24    1
     9    24    25   ar
    10    25    26   ar
    11    26    27   ar
    12    27    28    1
    13    27    29   ar
    14    29    30   ar
    15    30    31    1
    16     3     4   ar
    17     4     5   ar
    18     5     6   ar
    19     6    11    1
    20    11    12    2
    21    11    13   am
    22    13    15    1
    23    15    16    1
    24    16    17    1
    25    17    18    1
    26    18    19    1
    27    19    20    1
    28    20    21    1
    29     6     1   ar
    30    21    16    1
    31    30    24   ar
    32    22    23    1
    33    13    14    1
@<TRIPOS>MOLECULE
*****
 31 33 0 0 0
SMALL
GASTEIGER

@<TRIPOS>ATOM
      1 C          62.4414   89.3938   11.2311 C.ar    1  UNL1       -0.0141
      2 C          63.0484   90.7324   11.5303 C.ar    1  UNL1        0.0303
      3 C          64.0238   90.8780   12.6605 C.ar    1  UNL1        0.1319
      4 N          64.3922   89.6849   13.4916 N.ar    1  UNL1       -0.2290
      5 C          63.7852   88.3462   13.1925 C.ar    1  UNL1        0.1045
      6 C          62.8098   88.2007   12.0622 C.ar    1  UNL1        0.0686
      7 C          60.4784   90.0983   10.8437 C.3     1  UNL1        0.0044
      8 C          61.4661   89.2482   10.1009 C.3     1  UNL1        0.0192
      9 C          62.4538   88.3981    9.3580 C.3     1  UNL1        0.0044
     10 C          60.4907   89.1026    8.9706 C.3     1  UNL1        0.0044
     11 C          62.2028   86.8619   11.7631 C.2     1  UNL1        0.2471
     12 O          60.7135   86.7218   11.6515 O.2     1  UNL1       -0.2701
     13 N          63.0850   85.6634   11.5757 N.am    1  UNL1       -0.3008
     14 H          64.0625   85.7554   11.6490 H       1  UNL1        0.1497
     15 C          62.4780   84.3247   11.2766 C.3     1  UNL1        0.0898
     16 C          62.5957   83.2086   12.2718 C.3     1  UNL1        0.0246
     17 C          62.5516   83.5063   13.7412 C.3     1  UNL1        0.0338
     18 C          62.6693   82.3902   14.7365 C.3     1  UNL1        0.1422
     19 O          62.8311   80.9764   14.2622 O.3     1  UNL1       -0.3538
     20 C          62.8753   80.6787   12.7927 C.3     1  UNL1        0.1422
     21 C          62.7576   81.7948   11.7975 C.3     1  UNL1        0.0338
     22 N          64.6308   92.2167   12.9596 N.pl3   1  UNL1       -0.2973
     23 H          64.2344   93.0332   12.5783 H       1  UNL1        0.1536
     24 C          65.8418   92.3113   13.8397 C.ar    1  UNL1        0.0601
     25 C          65.6807   92.4651   15.3232 C.ar    1  UNL1        0.0164
     26 C          66.8917   92.5598   16.2033 C.ar    1  UNL1        0.0127
     27 C          68.2638   92.5006   15.5999 C.ar    1  UNL1        0.0586
     28 CL         69.4747   92.5952   16.4800 Cl      1  UNL1       -0.0822
     29 C          68.4248   92.3468   14.1166 C.ar    1  UNL1        0.0240
     30 C          67.2138   92.2521   13.2365 C.ar    1  UNL1        0.0719
     31 CL         67.3749   92.0983   11.7531 Cl      1  UNL1       -0.0809
@<TRIPOS>BOND
     1     7     8    1
     2     8     9    1
     3     8    10    1
     4     8     1    1
     5     1     2   ar
     6     2     3   ar
     7     3    22    1
     8    22    24    1
     9    24    25   ar
    10    25    26   ar
    11    26    27   ar
    12    27    28    1
    13    27    29   ar
    14    29    30   ar
    15    30    31    1
    16     3     4   ar
    17     4     5   ar
    18     5     6   ar
    19     6    11    1
    20    11    12    2
    21    11    13   am
    22    13    15    1
    23    15    16    1
    24    16    17    1
    25    17    18    1
    26    18    19    1
    27    19    20    1
    28    20    21    1
    29     6     1   ar
    30    21    16    1
    31    30    24   ar
    32    22    23    1
    33    13    14    1
@<TRIPOS>MOLECULE
*****
 31 33 0 0 0
SMALL
GASTEIGER

@<TRIPOS>ATOM
      1 C          62.2956   87.6642   11.4985 C.ar    1  UNL1       -0.0141
      2 C          62.3511   86.2552   12.0098 C.ar    1  UNL1        0.0303
      3 C          63.1926   85.9242   13.2066 C.ar    1  UNL1        0.1319
      4 N          63.9786   87.0023   13.8921 N.ar    1  UNL1       -0.2290
      5 C          63.9231   88.4113   13.3807 C.ar    1  UNL1        0.1045
      6 C          63.0816   88.7423   12.1839 C.ar    1  UNL1        0.0686
      7 C          62.6601   87.8686    9.4187 C.3     1  UNL1        0.0044
      8 C          61.4541   87.9951   10.3016 C.3     1  UNL1        0.0192
      9 C          60.2481   88.1217   11.1846 C.3     1  UNL1        0.0044
     10 C          60.6126   88.3261    9.1048 C.3     1  UNL1        0.0044
     11 C          63.0262   90.1514   11.6726 C.2     1  UNL1        0.2471
     12 O          61.7017   90.7903   11.3769 O.2     1  UNL1       -0.2701
     13 N          64.2952   90.9214   11.4569 N.am    1  UNL1       -0.3008
     14 H          65.1645   90.5021   11.6510 H       1  UNL1        0.1497
     15 C          64.2398   92.3306   10.9455 C.3     1  UNL1        0.0898
     16 C          65.5064   93.0462   10.5803 C.3     1  UNL1        0.0246
     17 C          66.7146   92.2641   10.1579 C.3     1  UNL1        0.0338
     18 C          67.9813   92.9798    9.7926 C.3     1  UNL1        0.1422
     19 O          68.0397   94.4776    9.8497 O.3     1  UNL1       -0.3538
     20 C          66.8313   95.2597   10.2720 C.3     1  UNL1        0.1422
     21 C          65.5647   94.5440   10.6373 C.3     1  UNL1        0.0338
     22 N          63.2480   84.5151   13.7180 N.pl3   1  UNL1       -0.2973
     23 H          63.3039   84.3446   14.6860 H       1  UNL1        0.1536
     24 C          63.2183   83.3659   12.7544 C.ar    1  UNL1        0.0601
     25 C          63.8898   83.4895   11.4188 C.ar    1  UNL1        0.0164
     26 C          63.8601   82.3403   10.4552 C.ar    1  UNL1        0.0127
     27 C          63.1589   81.0675   10.8273 C.ar    1  UNL1        0.0586
     28 CL         63.1292   79.9183    9.8638 Cl      1  UNL1       -0.0822
     29 C          62.4875   80.9439   12.1629 C.ar    1  UNL1        0.0240
     30 C          62.5172   82.0932   13.1265 C.ar    1  UNL1        0.0719
     31 CL         61.8457   81.9696   14.4622 Cl      1  UNL1       -0.0809
@<TRIPOS>BOND
     1     7     8    1
     2     8     9    1
     3     8    10    1
     4     8     1    1
     5     1     2   ar
     6     2     3   ar
     7     3    22    1
     8    22    24    1
     9    24    25   ar
    10    25    26   ar
    11    26    27   ar
    12    27    28    1
    13    27    29   ar
    14    29    30   ar
    15    30    31    1
    16     3     4   ar
    17     4     5   ar
    18     5     6   ar
    19     6    11    1
    20    11    12    2
    21    11    13   am
    22    13    15    1
    23    15    16    1
    24    16    17    1
    25    17    18    1
    26    18    19    1
    27    19    20    1
    28    20    21    1
    29     6     1   ar
    30    21    16    1
    31    30    24   ar
    32    22    23    1
    33    13    14    1
@<TRIPOS>MOLECULE
*****
 31 33 0 0 0
SMALL
GASTEIGER

@<TRIPOS>ATOM
      1 C          62.4343   89.2583   11.4218 C.ar    1  UNL1       -0.0141
      2 C          62.9663   90.6064   11.8086 C.ar    1  UNL1        0.0303
      3 C          63.9266   90.7333   12.9539 C.ar    1  UNL1        0.1319
      4 N          64.3549   89.5122   13.7123 N.ar    1  UNL1       -0.2290
      5 C          63.8230   88.1641   13.3255 C.ar    1  UNL1        0.1045
      6 C          62.8627   88.0372   12.1802 C.ar    1  UNL1        0.0686
      7 C          60.4157   89.8184   11.0877 C.3     1  UNL1        0.0044
      8 C          61.4740   89.1314   10.2765 C.3     1  UNL1        0.0192
      9 C          62.5323   88.4444    9.4653 C.3     1  UNL1        0.0044
     10 C          60.5136   89.0045    9.1312 C.3     1  UNL1        0.0044
     11 C          62.3307   86.6890   11.7934 C.2     1  UNL1        0.2471
     12 O          60.8567   86.4927   11.5963 O.2     1  UNL1       -0.2701
     13 N          63.2727   85.5373   11.6037 N.am    1  UNL1       -0.3008
     14 H          64.2401   85.6661   11.7331 H       1  UNL1        0.1497
     15 C          62.7408   84.1891   11.2169 C.3     1  UNL1        0.0898
     16 C          62.6689   83.0906   12.2358 C.3     1  UNL1        0.0246
     17 C          62.7479   81.6575   11.8003 C.3     1  UNL1        0.0338
     18 C          62.6760   80.5589   12.8192 C.3     1  UNL1        0.1422
     19 O          62.5252   80.8936   14.2735 O.3     1  UNL1       -0.3538
     20 C          62.4463   82.3269   14.7090 C.3     1  UNL1        0.1422
     21 C          62.5181   83.4253   13.6902 C.3     1  UNL1        0.0338
     22 N          64.4585   92.0815   13.3407 N.pl3   1  UNL1       -0.2973
     23 H          63.9569   92.8950   13.1044 H       1  UNL1        0.1536
     24 C          65.7548   92.1902   14.0876 C.ar    1  UNL1        0.0601
     25 C          67.0534   92.2118   13.3370 C.ar    1  UNL1        0.0164
     26 C          68.3497   92.3205   14.0838 C.ar    1  UNL1        0.0127
     27 C          68.3474   92.4076   15.5814 C.ar    1  UNL1        0.0586
     28 CL         69.6437   92.5162   16.3283 Cl      1  UNL1       -0.0822
     29 C          67.0489   92.3859   16.3319 C.ar    1  UNL1        0.0240
     30 C          65.7526   92.2772   15.5850 C.ar    1  UNL1        0.0719
     31 CL         64.4540   92.2556   16.3357 Cl      1  UNL1       -0.0809
@<TRIPOS>BOND
     1     7     8    1
     2     8     9    1
     3     8    10    1
     4     8     1    1
     5     1     2   ar
     6     2     3   ar
     7     3    22    1
     8    22    24    1
     9    24    25   ar
    10    25    26   ar
    11    26    27   ar
    12    27    28    1
    13    27    29   ar
    14    29    30   ar
    15    30    31    1
    16     3     4   ar
    17     4     5   ar
    18     5     6   ar
    19     6    11    1
    20    11    12    2
    21    11    13   am
    22    13    15    1
    23    15    16    1
    24    16    17    1
    25    17    18    1
    26    18    19    1
    27    19    20    1
    28    20    21    1
    29     6     1   ar
    30    21    16    1
    31    30    24   ar
    32    22    23    1
    33    13    14    1
@<TRIPOS>MOLECULE
*****
 31 33 0 0 0
SMALL
GASTEIGER

@<TRIPOS>ATOM
      1 C          64.4202   89.5038   14.3450 C.ar    1  UNL1       -0.0141
      2 C          64.5858   88.2092   15.0843 C.ar    1  UNL1        0.0303
      3 C          64.1383   86.9234   14.4548 C.ar    1  UNL1        0.1319
      4 N          63.5252   86.9321   13.0858 N.ar    1  UNL1       -0.2290
      5 C          63.3596   88.2266   12.3465 C.ar    1  UNL1        0.1045
      6 C          63.8071   89.5125   12.9761 C.ar    1  UNL1        0.0686
      7 C          63.5266   90.9350   15.6308 C.3     1  UNL1        0.0044
      8 C          64.8676   90.7896   14.9746 C.3     1  UNL1        0.0192
      9 C          66.2086   90.6443   14.3183 C.3     1  UNL1        0.0044
     10 C          65.3151   92.0755   15.6041 C.3     1  UNL1        0.0044
     11 C          63.6414   90.8071   12.2366 C.2     1  UNL1        0.2471
     12 O          62.2713   91.2806   11.8512 O.2     1  UNL1       -0.2701
     13 N          64.8459   91.6280   11.8826 N.am    1  UNL1       -0.3008
     14 H          65.7451   91.3172   12.1355 H       1  UNL1        0.1497
     15 C          64.6802   92.9226   11.1432 C.3     1  UNL1        0.0898
     16 C          65.8746   93.5989   10.5382 C.3     1  UNL1        0.0246
     17 C          67.0253   92.7792   10.0343 C.3     1  UNL1        0.0338
     18 C          68.2197   93.4555    9.4292 C.3     1  UNL1        0.1422
     19 O          68.2634   94.9514    9.3281 O.3     1  UNL1       -0.3538
     20 C          67.1126   95.7711    9.8320 C.3     1  UNL1        0.1422
     21 C          65.9182   95.0948   10.4370 C.3     1  UNL1        0.0338
     22 N          64.3040   85.6288   15.1942 N.pl3   1  UNL1       -0.2973
     23 H          64.6970   85.6243   16.0968 H       1  UNL1        0.1536
     24 C          63.8708   84.3412   14.5583 C.ar    1  UNL1        0.0601
     25 C          64.7449   83.6789   13.5348 C.ar    1  UNL1        0.0164
     26 C          64.3117   82.3913   12.8988 C.ar    1  UNL1        0.0127
     27 C          63.0045   81.7659   13.2865 C.ar    1  UNL1        0.0586
     28 CL         62.5714   80.4783   12.6506 Cl      1  UNL1       -0.0822
     29 C          62.1306   82.4281   14.3100 C.ar    1  UNL1        0.0240
     30 C          62.5637   83.7158   14.9459 C.ar    1  UNL1        0.0719
     31 CL         61.6896   84.3780   15.9694 Cl      1  UNL1       -0.0809
@<TRIPOS>BOND
     1     7     8    1
     2     8     9    1
     3     8    10    1
     4     8     1    1
     5     1     2   ar
     6     2     3   ar
     7     3    22    1
     8    22    24    1
     9    24    25   ar
    10    25    26   ar
    11    26    27   ar
    12    27    28    1
    13    27    29   ar
    14    29    30   ar
    15    30    31    1
    16     3     4   ar
    17     4     5   ar
    18     5     6   ar
    19     6    11    1
    20    11    12    2
    21    11    13   am
    22    13    15    1
    23    15    16    1
    24    16    17    1
    25    17    18    1
    26    18    19    1
    27    19    20    1
    28    20    21    1
    29     6     1   ar
    30    21    16    1
    31    30    24   ar
    32    22    23    1
    33    13    14    1
@<TRIPOS>MOLECULE
*****
 31 33 0 0 0
SMALL
GASTEIGER

@<TRIPOS>ATOM
      1 C          62.0092   87.5944   10.8216 C.ar    1  UNL1       -0.0141
      2 C          62.7924   87.8357   12.0779 C.ar    1  UNL1        0.0303
      3 C          62.4823   89.0246   12.9383 C.ar    1  UNL1        0.1319
      4 N          61.3891   89.9723   12.5424 N.ar    1  UNL1       -0.2290
      5 C          60.6059   89.7310   11.2861 C.ar    1  UNL1        0.1045
      6 C          60.9160   88.5420   10.4257 C.ar    1  UNL1        0.0686
      7 C          61.7184   85.5003   10.9955 C.3     1  UNL1        0.0044
      8 C          62.3192   86.4054    9.9612 C.3     1  UNL1        0.0192
      9 C          62.9200   87.3106    8.9269 C.3     1  UNL1        0.0044
     10 C          62.6293   85.2165    9.1008 C.3     1  UNL1        0.0044
     11 C          60.1327   88.3008    9.1693 C.2     1  UNL1        0.2471
     12 O          59.3867   87.0123    8.9864 O.2     1  UNL1       -0.2701
     13 N          60.0955   89.3479    8.0960 N.am    1  UNL1       -0.3008
     14 H          60.5851   90.1935    8.2161 H       1  UNL1        0.1497
     15 C          59.3122   89.1066    6.8396 C.3     1  UNL1        0.0898
     16 C          59.0815   90.2296    5.8724 C.3     1  UNL1        0.0246
     17 C          57.6847   90.6887    5.5755 C.3     1  UNL1        0.0338
     18 C          57.4540   91.8117    4.6082 C.3     1  UNL1        0.1422
     19 O          58.6201   92.4755    3.9377 O.3     1  UNL1       -0.3538
     20 C          60.0169   92.0164    4.2346 C.3     1  UNL1        0.1422
     21 C          60.2476   90.8934    5.2019 C.3     1  UNL1        0.0338
     22 N          63.2656   89.2659   14.1947 N.pl3   1  UNL1       -0.2973
     23 H          63.1637   88.6583   14.9626 H       1  UNL1        0.1536
     24 C          64.2040   90.4329   14.2810 C.ar    1  UNL1        0.0601
     25 C          64.9300   90.9037   13.0557 C.ar    1  UNL1        0.0164
     26 C          65.8684   92.0707   13.1420 C.ar    1  UNL1        0.0127
     27 C          66.0808   92.7670   14.4536 C.ar    1  UNL1        0.0586
     28 CL         67.0192   93.9340   14.5399 Cl      1  UNL1       -0.0822
     29 C          65.3549   92.2961   15.6788 C.ar    1  UNL1        0.0240
     30 C          64.4164   91.1291   15.5925 C.ar    1  UNL1        0.0719
     31 CL         63.6904   90.6583   16.8178 Cl      1  UNL1       -0.0809
@<TRIPOS>BOND
     1     7     8    1
     2     8     9    1
     3     8    10    1
     4     8     1    1
     5     1     2   ar
     6     2     3   ar
     7     3    22    1
     8    22    24    1
     9    24    25   ar
    10    25    26   ar
    11    26    27   ar
    12    27    28    1
    13    27    29   ar
    14    29    30   ar
    15    30    31    1
    16     3     4   ar
    17     4     5   ar
    18     5     6   ar
    19     6    11    1
    20    11    12    2
    21    11    13   am
    22    13    15    1
    23    15    16    1
    24    16    17    1
    25    17    18    1
    26    18    19    1
    27    19    20    1
    28    20    21    1
    29     6     1   ar
    30    21    16    1
    31    30    24   ar
    32    22    23    1
    33    13    14    1
@<TRIPOS>MOLECULE
*****
 31 33 0 0 0
SMALL
GASTEIGER

@<TRIPOS>ATOM
      1 C          62.2086   87.7646   11.0457 C.ar    1  UNL1       -0.0141
      2 C          62.3809   89.2053   11.4261 C.ar    1  UNL1        0.0303
      3 C          63.1767   89.5693   12.6444 C.ar    1  UNL1        0.1319
      4 N          63.8001   88.4928   13.4823 N.ar    1  UNL1       -0.2290
      5 C          63.6279   87.0521   13.1020 C.ar    1  UNL1        0.1045
      6 C          62.8321   86.6880   11.8837 C.ar    1  UNL1        0.0686
      7 C          60.1563   87.8455   10.5152 C.3     1  UNL1        0.0044
      8 C          61.4129   87.4005    9.8274 C.3     1  UNL1        0.0192
      9 C          62.6695   86.9555    9.1397 C.3     1  UNL1        0.0044
     10 C          60.6172   87.0364    8.6092 C.3     1  UNL1        0.0044
     11 C          62.6599   85.2472   11.5033 C.2     1  UNL1        0.2471
     12 O          61.3108   84.7361   11.0924 O.2     1  UNL1       -0.2701
     13 N          63.8366   84.3176   11.5339 N.am    1  UNL1       -0.3008
     14 H          64.7221   84.6530   11.8036 H       1  UNL1        0.1497
     15 C          63.6644   82.8768   11.1536 C.3     1  UNL1        0.0898
     16 C          63.0161   81.9209   12.1105 C.3     1  UNL1        0.0246
     17 C          63.0009   80.4518   11.8082 C.3     1  UNL1        0.0338
     18 C          62.3526   79.4957   12.7652 C.3     1  UNL1        0.1422
     19 O          61.7195   80.0088   14.0245 O.3     1  UNL1       -0.3538
     20 C          61.7346   81.4780   14.3268 C.3     1  UNL1        0.1422
     21 C          62.3829   82.4340   13.3698 C.3     1  UNL1        0.0338
     22 N          63.3489   91.0101   13.0247 N.pl3   1  UNL1       -0.2973
     23 H          62.7679   91.4109   13.7111 H       1  UNL1        0.1536
     24 C          64.4063   91.8402   12.3593 C.ar    1  UNL1        0.0601
     25 C          64.2606   92.2246   10.9166 C.ar    1  UNL1        0.0164
     26 C          65.3181   93.0546   10.2512 C.ar    1  UNL1        0.0127
     27 C          66.5212   93.5003   11.0284 C.ar    1  UNL1        0.0586
     28 CL         67.5786   94.3304   10.3629 Cl      1  UNL1       -0.0822
     29 C          66.6668   93.1160   12.4709 C.ar    1  UNL1        0.0240
     30 C          65.6094   92.2859   13.1364 C.ar    1  UNL1        0.0719
     31 CL         65.7551   91.9015   14.5790 Cl      1  UNL1       -0.0809
@<TRIPOS>BOND
     1     7     8    1
     2     8     9    1
     3     8    10    1
     4     8     1    1
     5     1     2   ar
     6     2     3   ar
     7     3    22    1
     8    22    24    1
     9    24    25   ar
    10    25    26   ar
    11    26    27   ar
    12    27    28    1
    13    27    29   ar
    14    29    30   ar
    15    30    31    1
    16     3     4   ar
    17     4     5   ar
    18     5     6   ar
    19     6    11    1
    20    11    12    2
    21    11    13   am
    22    13    15    1
    23    15    16    1
    24    16    17    1
    25    17    18    1
    26    18    19    1
    27    19    20    1
    28    20    21    1
    29     6     1   ar
    30    21    16    1
    31    30    24   ar
    32    22    23    1
    33    13    14    1
@<TRIPOS>MOLECULE
*****
 31 33 0 0 0
SMALL
GASTEIGER

@<TRIPOS>ATOM
      1 C          62.5864   89.7999   11.2217 C.ar    1  UNL1       -0.0141
      2 C          63.2836   91.1107   11.4354 C.ar    1  UNL1        0.0303
      3 C          64.2869   91.2551   12.5411 C.ar    1  UNL1        0.1319
      4 N          64.5931   90.0886   13.4330 N.ar    1  UNL1       -0.2290
      5 C          63.8959   88.7778   13.2193 C.ar    1  UNL1        0.1045
      6 C          62.8926   88.6335   12.1137 C.ar    1  UNL1        0.0686
      7 C          62.5225   88.7450    9.3824 C.3     1  UNL1        0.0044
      8 C          61.5830   89.6556   10.1161 C.3     1  UNL1        0.0192
      9 C          60.6436   90.5661   10.8498 C.3     1  UNL1        0.0044
     10 C          60.5797   89.5112    9.0104 C.3     1  UNL1        0.0044
     11 C          62.1953   87.3226   11.9000 C.2     1  UNL1        0.2471
     12 O          60.7005   87.2783   11.7844 O.2     1  UNL1       -0.2701
     13 N          62.9930   86.0561   11.8020 N.am    1  UNL1       -0.3008
     14 H          63.9742   86.0852   11.8780 H       1  UNL1        0.1497
     15 C          62.2958   84.7452   11.5884 C.3     1  UNL1        0.0898
     16 C          62.5929   83.5824   12.4880 C.3     1  UNL1        0.0246
     17 C          62.6626   82.1950   11.9221 C.3     1  UNL1        0.0338
     18 C          62.9598   81.0320   12.8218 C.3     1  UNL1        0.1422
     19 O          63.1872   81.2565   14.2873 O.3     1  UNL1       -0.3538
     20 C          63.1174   82.6440   14.8532 C.3     1  UNL1        0.1422
     21 C          62.8203   83.8068   13.9536 C.3     1  UNL1        0.0338
     22 N          64.9841   92.5660   12.7547 N.pl3   1  UNL1       -0.2973
     23 H          64.9440   93.0073   13.6338 H       1  UNL1        0.1536
     24 C          65.7424   93.2044   11.6289 C.ar    1  UNL1        0.0601
     25 C          65.1309   94.3385   10.8609 C.ar    1  UNL1        0.0164
     26 C          65.8891   94.9769    9.7351 C.ar    1  UNL1        0.0127
     27 C          67.2589   94.4812    9.3772 C.ar    1  UNL1        0.0586
     28 CL         68.0172   95.1196    8.2514 Cl      1  UNL1       -0.0822
     29 C          67.8704   93.3471   10.1452 C.ar    1  UNL1        0.0240
     30 C          67.1121   92.7087   11.2711 C.ar    1  UNL1        0.0719
     31 CL         67.7236   91.5745   12.0391 Cl      1  UNL1       -0.0809
@<TRIPOS>BOND
     1     7     8    1
     2     8     9    1
     3     8    10    1
     4     8     1    1
     5     1     2   ar
     6     2     3   ar
     7     3    22    1
     8    22    24    1
     9    24    25   ar
    10    25    26   ar
    11    26    27   ar
    12    27    28    1
    13    27    29   ar
    14    29    30   ar
    15    30    31    1
    16     3     4   ar
    17     4     5   ar
    18     5     6   ar
    19     6    11    1
    20    11    12    2
    21    11    13   am
    22    13    15    1
    23    15    16    1
    24    16    17    1
    25    17    18    1
    26    18    19    1
    27    19    20    1
    28    20    21    1
    29     6     1   ar
    30    21    16    1
    31    30    24   ar
    32    22    23    1
    33    13    14    1
