@<TRIPOS>MOLECULE
*****
 26 29 0 0 0
SMALL
GASTEIGER

@<TRIPOS>ATOM
      1 C          64.2981   90.0040   14.4447 C.ar    1  UNL1        0.1723
      2 C          64.1045   88.5790   14.0182 C.ar    1  UNL1        0.0456
      3 C          63.5694   87.5709   14.9916 C.ar    1  UNL1        0.0630
      4 C          63.2279   87.9879   16.3914 C.ar    1  UNL1       -0.0063
      5 C          63.4215   89.4128   16.8178 C.ar    1  UNL1        0.0359
      6 C          63.9566   90.4209   15.8445 C.ar    1  UNL1        0.1674
      7 O          64.1502   91.8460   16.2710 O.3     1  UNL1       -0.5029
      8 C          62.6927   86.9798   17.3648 C.3     1  UNL1        0.1119
      9 C          62.4991   85.5548   16.9384 C.3     1  UNL1        0.3269
     10 N          62.8406   85.1378   15.5385 N.ar    1  UNL1       -0.1641
     11 C          62.6470   83.7128   15.1121 C.ar    1  UNL1        0.2929
     12 C          62.9885   83.2958   13.7122 C.ar    1  UNL1        0.1068
     13 C          62.7949   81.8709   13.2858 C.ar    1  UNL1        0.1782
     14 C          63.1364   81.4539   11.8860 C.ar    1  UNL1        0.1726
     15 C          63.6716   82.4620   10.9126 C.ar    1  UNL1        0.0401
     16 C          63.8652   83.8870   11.3390 C.ar    1  UNL1        0.0037
     17 C          63.5237   84.3039   12.7388 C.ar    1  UNL1        0.0150
     18 C          63.7173   85.7290   13.1653 C.ar    1  UNL1        0.0695
     19 C          63.3758   86.1459   14.5651 C.ar    1  UNL1        0.2260
     20 H          63.9368   92.1064   17.1454 H       1  UNL1        0.2923
     21 C          64.0596   91.3385   12.2283 C.3     1  UNL1        0.2526
     22 O          64.8332   91.0120   13.4713 O.3     1  UNL1       -0.4684
     23 O          62.2598   80.8628   14.2592 O.3     1  UNL1       -0.4682
     24 C          60.7898   80.5677   14.3011 C.3     1  UNL1        0.2526
     25 O          62.9428   80.0289   11.4595 O.3     1  UNL1       -0.4684
     26 C          62.9033   79.6814   10.0008 C.3     1  UNL1        0.2526
@<TRIPOS>UNITY_ATOM_ATTR
10 1
charge 1
@<TRIPOS>BOND
     1    21    22    1
     2    22     1    1
     3     1     2   ar
     4     2     3   ar
     5     3     4   ar
     6     4     5   ar
     7     5     6   ar
     8     6     7    1
     9     4     8    1
    10     8     9    1
    11     9    10    1
    12    10    11   ar
    13    11    12   ar
    14    12    13   ar
    15    13    23    1
    16    23    24    1
    17    13    14   ar
    18    14    25    1
    19    25    26    1
    20    14    15   ar
    21    15    16   ar
    22    16    17   ar
    23    17    18   ar
    24    18    19   ar
    25     6     1   ar
    26    19    10   ar
    27    19     3    1
    28    17    12   ar
    29     7    20    1
@<TRIPOS>MOLECULE
*****
 26 29 0 0 0
SMALL
GASTEIGER

@<TRIPOS>ATOM
      1 C          63.0396   81.4423   12.4436 C.ar    1  UNL1        0.1723
      2 C          62.5530   82.6723   11.7364 C.ar    1  UNL1        0.0456
      3 C          62.8894   84.0307   12.2766 C.ar    1  UNL1        0.0630
      4 C          63.7125   84.1590   13.5240 C.ar    1  UNL1       -0.0063
      5 C          64.1992   82.9289   14.2312 C.ar    1  UNL1        0.0359
      6 C          63.8627   81.5706   13.6910 C.ar    1  UNL1        0.1674
      7 O          64.3495   80.3406   14.3983 O.3     1  UNL1       -0.5029
      8 C          64.0489   85.5173   14.0642 C.3     1  UNL1        0.1119
      9 C          63.5622   86.7473   13.3570 C.3     1  UNL1        0.3269
     10 N          62.7391   86.6190   12.1096 N.ar    1  UNL1       -0.1641
     11 C          62.2524   87.8490   11.4024 C.ar    1  UNL1        0.2929
     12 C          61.4293   87.7208   10.1549 C.ar    1  UNL1        0.1068
     13 C          60.9426   88.9508    9.4477 C.ar    1  UNL1        0.1782
     14 C          60.1195   88.8225    8.2004 C.ar    1  UNL1        0.1726
     15 C          59.7831   87.4642    7.6602 C.ar    1  UNL1        0.0401
     16 C          60.2698   86.2342    8.3674 C.ar    1  UNL1        0.0037
     17 C          61.0929   86.3625    9.6147 C.ar    1  UNL1        0.0150
     18 C          61.5796   85.1324   10.3220 C.ar    1  UNL1        0.0695
     19 C          62.4027   85.2607   11.5694 C.ar    1  UNL1        0.2260
     20 H          64.8636   80.4207   15.1775 H       1  UNL1        0.2923
     21 C          62.8969   79.7875   10.4459 C.3     1  UNL1        0.2526
     22 O          62.7032   80.0840   11.9034 O.3     1  UNL1       -0.4684
     23 O          61.2790   90.3091    9.9879 O.3     1  UNL1       -0.4682
     24 C          62.6975   90.7962    9.9623 C.3     1  UNL1        0.2526
     25 O          59.6328   90.0526    7.4931 O.3     1  UNL1       -0.4684
     26 C          59.2280   89.9776    6.0507 C.3     1  UNL1        0.2526
@<TRIPOS>UNITY_ATOM_ATTR
10 1
charge 1
@<TRIPOS>BOND
     1    21    22    1
     2    22     1    1
     3     1     2   ar
     4     2     3   ar
     5     3     4   ar
     6     4     5   ar
     7     5     6   ar
     8     6     7    1
     9     4     8    1
    10     8     9    1
    11     9    10    1
    12    10    11   ar
    13    11    12   ar
    14    12    13   ar
    15    13    23    1
    16    23    24    1
    17    13    14   ar
    18    14    25    1
    19    25    26    1
    20    14    15   ar
    21    15    16   ar
    22    16    17   ar
    23    17    18   ar
    24    18    19   ar
    25     6     1   ar
    26    19    10   ar
    27    19     3    1
    28    17    12   ar
    29     7    20    1
@<TRIPOS>MOLECULE
*****
 26 29 0 0 0
SMALL
GASTEIGER

@<TRIPOS>ATOM
      1 C          59.6763   88.5704    7.6048 C.ar    1  UNL1        0.1723
      2 C          60.7141   89.3067    8.3990 C.ar    1  UNL1        0.0456
      3 C          61.2331   88.7222    9.6792 C.ar    1  UNL1        0.0630
      4 C          60.7144   87.4013   10.1652 C.ar    1  UNL1       -0.0063
      5 C          59.6766   86.6650    9.3709 C.ar    1  UNL1        0.0359
      6 C          59.1576   87.2496    8.0907 C.ar    1  UNL1        0.1674
      7 O          58.1198   86.5132    7.2965 O.3     1  UNL1       -0.5029
      8 C          61.2334   86.8168   11.4454 C.3     1  UNL1        0.1119
      9 C          62.2711   87.5531   12.2396 C.3     1  UNL1        0.3269
     10 N          62.7899   88.8740   11.7537 N.ar    1  UNL1       -0.1641
     11 C          63.8277   89.6103   12.5479 C.ar    1  UNL1        0.2929
     12 C          64.3465   90.9312   12.0620 C.ar    1  UNL1        0.1068
     13 C          65.3843   91.6675   12.8562 C.ar    1  UNL1        0.1782
     14 C          65.9030   92.9884   12.3702 C.ar    1  UNL1        0.1726
     15 C          65.3840   93.5729   11.0900 C.ar    1  UNL1        0.0401
     16 C          64.3462   92.8366   10.2958 C.ar    1  UNL1        0.0037
     17 C          63.8275   91.5158   10.7817 C.ar    1  UNL1        0.0150
     18 C          62.7897   90.7794    9.9875 C.ar    1  UNL1        0.0695
     19 C          62.2709   89.4585   10.4735 C.ar    1  UNL1        0.2260
     20 H          57.7957   85.6881    7.6001 H       1  UNL1        0.2923
     21 C          59.7306   90.4376    5.7990 C.3     1  UNL1        0.2526
     22 O          59.1573   89.1550    6.3245 O.3     1  UNL1       -0.4684
     23 O          65.9033   91.0830   14.1364 O.3     1  UNL1       -0.4682
     24 C          65.0405   91.0796   15.3634 C.3     1  UNL1        0.2526
     25 O          66.9408   93.7248   13.1645 O.3     1  UNL1       -0.4684
     26 C          66.8617   93.7485   14.6622 C.3     1  UNL1        0.2526
@<TRIPOS>UNITY_ATOM_ATTR
10 1
charge 1
@<TRIPOS>BOND
     1    21    22    1
     2    22     1    1
     3     1     2   ar
     4     2     3   ar
     5     3     4   ar
     6     4     5   ar
     7     5     6   ar
     8     6     7    1
     9     4     8    1
    10     8     9    1
    11     9    10    1
    12    10    11   ar
    13    11    12   ar
    14    12    13   ar
    15    13    23    1
    16    23    24    1
    17    13    14   ar
    18    14    25    1
    19    25    26    1
    20    14    15   ar
    21    15    16   ar
    22    16    17   ar
    23    17    18   ar
    24    18    19   ar
    25     6     1   ar
    26    19    10   ar
    27    19     3    1
    28    17    12   ar
    29     7    20    1
@<TRIPOS>MOLECULE
*****
 26 29 0 0 0
SMALL
GASTEIGER

@<TRIPOS>ATOM
      1 C          63.3610   93.3316    1.5291 C.ar    1  UNL1        0.1723
      2 C          62.2568   93.2574    0.5166 C.ar    1  UNL1        0.0456
      3 C          62.4441   93.8625   -0.8431 C.ar    1  UNL1        0.0630
      4 C          63.7356   94.5417   -1.1904 C.ar    1  UNL1       -0.0063
      5 C          64.8397   94.6159   -0.1779 C.ar    1  UNL1        0.0359
      6 C          64.6525   94.0109    1.1818 C.ar    1  UNL1        0.1674
      7 O          65.7567   94.0851    2.1944 O.3     1  UNL1       -0.5029
      8 C          63.9228   95.1468   -2.5501 C.3     1  UNL1        0.1119
      9 C          62.8186   95.0726   -3.5626 C.3     1  UNL1        0.3269
     10 N          61.5271   94.3933   -3.2154 N.ar    1  UNL1       -0.1641
     11 C          60.4229   94.3191   -4.2279 C.ar    1  UNL1        0.2929
     12 C          59.1313   93.6398   -3.8807 C.ar    1  UNL1        0.1068
     13 C          58.0271   93.5656   -4.8932 C.ar    1  UNL1        0.1782
     14 C          56.7356   92.8863   -4.5460 C.ar    1  UNL1        0.1726
     15 C          56.5483   92.2812   -3.1863 C.ar    1  UNL1        0.0401
     16 C          57.6525   92.3554   -2.1738 C.ar    1  UNL1        0.0037
     17 C          58.9440   93.0347   -2.5210 C.ar    1  UNL1        0.0150
     18 C          60.0483   93.1089   -1.5085 C.ar    1  UNL1        0.0695
     19 C          61.3398   93.7882   -1.8557 C.ar    1  UNL1        0.2260
     20 H          66.5635   94.5094    1.9775 H       1  UNL1        0.2923
     21 C          63.1316   91.2354    3.0468 C.3     1  UNL1        0.2526
     22 O          63.1737   92.7265    2.8888 O.3     1  UNL1       -0.4684
     23 O          58.2144   94.1707   -6.2529 O.3     1  UNL1       -0.4682
     24 C          57.6986   95.5501   -6.5374 C.3     1  UNL1        0.2526
     25 O          55.6313   92.8121   -5.5585 O.3     1  UNL1       -0.4684
     26 C          55.4820   91.5913   -6.4172 C.3     1  UNL1        0.2526
@<TRIPOS>UNITY_ATOM_ATTR
10 1
charge 1
@<TRIPOS>BOND
     1    21    22    1
     2    22     1    1
     3     1     2   ar
     4     2     3   ar
     5     3     4   ar
     6     4     5   ar
     7     5     6   ar
     8     6     7    1
     9     4     8    1
    10     8     9    1
    11     9    10    1
    12    10    11   ar
    13    11    12   ar
    14    12    13   ar
    15    13    23    1
    16    23    24    1
    17    13    14   ar
    18    14    25    1
    19    25    26    1
    20    14    15   ar
    21    15    16   ar
    22    16    17   ar
    23    17    18   ar
    24    18    19   ar
    25     6     1   ar
    26    19    10   ar
    27    19     3    1
    28    17    12   ar
    29     7    20    1
@<TRIPOS>MOLECULE
*****
 26 29 0 0 0
SMALL
GASTEIGER

@<TRIPOS>ATOM
      1 C          62.5409   82.4544   12.8063 C.ar    1  UNL1        0.1723
      2 C          62.7005   83.9220   12.5407 C.ar    1  UNL1        0.0456
      3 C          63.2299   84.8253   13.6147 C.ar    1  UNL1        0.0630
      4 C          63.5997   84.2611   14.9545 C.ar    1  UNL1       -0.0063
      5 C          63.4400   82.7935   15.2201 C.ar    1  UNL1        0.0359
      6 C          62.9106   81.8901   14.1460 C.ar    1  UNL1        0.1674
      7 O          62.7510   80.4225   14.4117 O.3     1  UNL1       -0.5029
      8 C          64.1290   85.1645   16.0285 C.3     1  UNL1        0.1119
      9 C          64.2887   86.6321   15.7629 C.3     1  UNL1        0.3269
     10 N          63.9189   87.1964   14.4231 N.ar    1  UNL1       -0.1641
     11 C          64.0786   88.6640   14.1575 C.ar    1  UNL1        0.2929
     12 C          63.7088   89.2283   12.8177 C.ar    1  UNL1        0.1068
     13 C          63.8685   90.6959   12.5520 C.ar    1  UNL1        0.1782
     14 C          63.4987   91.2601   11.2123 C.ar    1  UNL1        0.1726
     15 C          62.9693   90.3567   10.1383 C.ar    1  UNL1        0.0401
     16 C          62.8097   88.8891   10.4039 C.ar    1  UNL1        0.0037
     17 C          63.1794   88.3249   11.7436 C.ar    1  UNL1        0.0150
     18 C          63.0198   86.8572   12.0093 C.ar    1  UNL1        0.0695
     19 C          63.3895   86.2930   13.3490 C.ar    1  UNL1        0.2260
     20 H          62.9820   80.0700   15.2486 H       1  UNL1        0.2923
     21 C          62.9621   80.8185   10.8323 C.3     1  UNL1        0.2526
     22 O          62.0115   81.5510   11.7322 O.3     1  UNL1       -0.4684
     23 O          64.3979   91.5993   13.6261 O.3     1  UNL1       -0.4682
     24 C          65.8780   91.7524   13.8152 C.3     1  UNL1        0.2526
     25 O          63.6583   92.7278   10.9466 O.3     1  UNL1       -0.4684
     26 C          65.0116   93.2887   10.6242 C.3     1  UNL1        0.2526
@<TRIPOS>UNITY_ATOM_ATTR
10 1
charge 1
@<TRIPOS>BOND
     1    21    22    1
     2    22     1    1
     3     1     2   ar
     4     2     3   ar
     5     3     4   ar
     6     4     5   ar
     7     5     6   ar
     8     6     7    1
     9     4     8    1
    10     8     9    1
    11     9    10    1
    12    10    11   ar
    13    11    12   ar
    14    12    13   ar
    15    13    23    1
    16    23    24    1
    17    13    14   ar
    18    14    25    1
    19    25    26    1
    20    14    15   ar
    21    15    16   ar
    22    16    17   ar
    23    17    18   ar
    24    18    19   ar
    25     6     1   ar
    26    19    10   ar
    27    19     3    1
    28    17    12   ar
    29     7    20    1
@<TRIPOS>MOLECULE
*****
 26 29 0 0 0
SMALL
GASTEIGER

@<TRIPOS>ATOM
      1 C          62.1431   86.5691   11.7015 C.ar    1  UNL1        0.1723
      2 C          62.9604   87.7006   12.2508 C.ar    1  UNL1        0.0456
      3 C          63.0369   89.0008   11.5068 C.ar    1  UNL1        0.0630
      4 C          62.2962   89.1696   10.2134 C.ar    1  UNL1       -0.0063
      5 C          61.4790   88.0381    9.6641 C.ar    1  UNL1        0.0359
      6 C          61.4024   86.7379   10.4082 C.ar    1  UNL1        0.1674
      7 O          60.5851   85.6064    9.8588 O.3     1  UNL1       -0.5029
      8 C          62.3727   90.4698    9.4694 C.3     1  UNL1        0.1119
      9 C          63.1900   91.6013   10.0187 C.3     1  UNL1        0.3269
     10 N          63.9308   91.4326   11.3121 N.ar    1  UNL1       -0.1641
     11 C          64.7480   92.5640   11.8615 C.ar    1  UNL1        0.2929
     12 C          65.4888   92.3953   13.1549 C.ar    1  UNL1        0.1068
     13 C          66.3061   93.5268   13.7042 C.ar    1  UNL1        0.1782
     14 C          67.0468   93.3581   14.9976 C.ar    1  UNL1        0.1726
     15 C          66.9702   92.0579   15.7416 C.ar    1  UNL1        0.0401
     16 C          66.1530   90.9264   15.1923 C.ar    1  UNL1        0.0037
     17 C          65.4123   91.0951   13.8989 C.ar    1  UNL1        0.0150
     18 C          64.5949   89.9636   13.3495 C.ar    1  UNL1        0.0695
     19 C          63.8542   90.1324   12.0562 C.ar    1  UNL1        0.2260
     20 H          60.1224   85.7118    9.0508 H       1  UNL1        0.2923
     21 C          62.9685   84.1326   12.0645 C.3     1  UNL1        0.2526
     22 O          62.0666   85.2689   12.4455 O.3     1  UNL1       -0.4684
     23 O          66.3826   94.8270   12.9602 O.3     1  UNL1       -0.4682
     24 C          66.5228   94.8294   11.4668 C.3     1  UNL1        0.2526
     25 O          67.8641   94.4896   15.5470 O.3     1  UNL1       -0.4684
     26 C          69.2052   94.2170   16.1611 C.3     1  UNL1        0.2526
@<TRIPOS>UNITY_ATOM_ATTR
10 1
charge 1
@<TRIPOS>BOND
     1    21    22    1
     2    22     1    1
     3     1     2   ar
     4     2     3   ar
     5     3     4   ar
     6     4     5   ar
     7     5     6   ar
     8     6     7    1
     9     4     8    1
    10     8     9    1
    11     9    10    1
    12    10    11   ar
    13    11    12   ar
    14    12    13   ar
    15    13    23    1
    16    23    24    1
    17    13    14   ar
    18    14    25    1
    19    25    26    1
    20    14    15   ar
    21    15    16   ar
    22    16    17   ar
    23    17    18   ar
    24    18    19   ar
    25     6     1   ar
    26    19    10   ar
    27    19     3    1
    28    17    12   ar
    29     7    20    1
@<TRIPOS>MOLECULE
*****
 26 29 0 0 0
SMALL
GASTEIGER

@<TRIPOS>ATOM
      1 C          62.6219   80.8903   12.1699 C.ar    1  UNL1        0.1723
      2 C          62.6285   82.3737   11.9480 C.ar    1  UNL1        0.0456
      3 C          63.1620   83.2886   13.0103 C.ar    1  UNL1        0.0630
      4 C          63.6890   82.7200   14.2944 C.ar    1  UNL1       -0.0063
      5 C          63.6824   81.2366   14.5162 C.ar    1  UNL1        0.0359
      6 C          63.1488   80.3217   13.4540 C.ar    1  UNL1        0.1674
      7 O          63.1422   78.8382   13.6759 O.3     1  UNL1       -0.5029
      8 C          64.2226   83.6349   15.3566 C.3     1  UNL1        0.1119
      9 C          64.2292   85.1183   15.1347 C.3     1  UNL1        0.3269
     10 N          63.7022   85.6870   13.8505 N.ar    1  UNL1       -0.1641
     11 C          63.7088   87.1704   13.6287 C.ar    1  UNL1        0.2929
     12 C          63.1818   87.7391   12.3445 C.ar    1  UNL1        0.1068
     13 C          63.1884   89.2226   12.1226 C.ar    1  UNL1        0.1782
     14 C          62.6615   89.7911   10.8385 C.ar    1  UNL1        0.1726
     15 C          62.1279   88.8763    9.7763 C.ar    1  UNL1        0.0401
     16 C          62.1213   87.3928    9.9982 C.ar    1  UNL1        0.0037
     17 C          62.6483   86.8242   11.2823 C.ar    1  UNL1        0.0150
     18 C          62.6417   85.3407   11.5042 C.ar    1  UNL1        0.0695
     19 C          63.1686   84.7721   12.7883 C.ar    1  UNL1        0.2260
     20 H          63.4714   78.4830   14.4781 H       1  UNL1        0.2923
     21 C          62.9545   79.5900    9.9454 C.3     1  UNL1        0.2526
     22 O          62.0883   79.9754   11.1077 O.3     1  UNL1       -0.4684
     23 O          63.7220   90.1374   13.1848 O.3     1  UNL1       -0.4682
     24 C          63.1177   90.1257   14.5576 C.3     1  UNL1        0.2526
     25 O          62.6681   91.2747   10.6166 O.3     1  UNL1       -0.4684
     26 C          63.9703   92.0088   10.4937 C.3     1  UNL1        0.2526
@<TRIPOS>UNITY_ATOM_ATTR
10 1
charge 1
@<TRIPOS>BOND
     1    21    22    1
     2    22     1    1
     3     1     2   ar
     4     2     3   ar
     5     3     4   ar
     6     4     5   ar
     7     5     6   ar
     8     6     7    1
     9     4     8    1
    10     8     9    1
    11     9    10    1
    12    10    11   ar
    13    11    12   ar
    14    12    13   ar
    15    13    23    1
    16    23    24    1
    17    13    14   ar
    18    14    25    1
    19    25    26    1
    20    14    15   ar
    21    15    16   ar
    22    16    17   ar
    23    17    18   ar
    24    18    19   ar
    25     6     1   ar
    26    19    10   ar
    27    19     3    1
    28    17    12   ar
    29     7    20    1
