@<TRIPOS>MOLECULE
*****
 45 47 0 0 0
SMALL
GASTEIGER

@<TRIPOS>ATOM
      1 C          61.1201   88.4774   10.2298 C.3     1  UNL1        0.1054
      2 C          60.0499   88.3060    9.1929 C.3     1  UNL1        0.1689
      3 S          59.9480   87.0212    8.4256 S.O2    1  UNL1       -0.0085
      4 O          59.4497   85.9998    7.4465 O.2     1  UNL1       -0.1729
      5 O          58.8067   87.7798    7.8159 O.2     1  UNL1       -0.1729
      6 C          60.9163   85.9077    8.6952 C.3     1  UNL1        0.1536
      7 C          61.9865   86.0791    9.7322 C.3     1  UNL1        0.0562
      8 C          62.0884   87.3639   10.4995 C.3     1  UNL1        0.1285
      9 O          63.1586   87.5354   11.5365 O.3     1  UNL1       -0.3830
     10 H          63.0843   88.4165   11.9352 H       1  UNL1        0.2104
     11 N          61.2220   89.7623   10.9972 N.3     1  UNL1       -0.2915
     12 H          60.2841   90.1618   11.0284 H       1  UNL1        0.1236
     13 C          62.1401   90.8490   10.5216 C.3     1  UNL1        0.0957
     14 C          65.5890   92.5056   11.5754 C.ar    1  UNL1        0.0014
     15 C          65.7302   91.9976   12.9796 C.ar    1  UNL1       -0.0021
     16 C          64.6746   91.1067   13.5646 C.ar    1  UNL1       -0.0005
     17 C          63.4779   90.7238   12.7453 C.ar    1  UNL1       -0.0029
     18 C          63.3368   91.2319   11.3410 C.ar    1  UNL1       -0.0066
     19 C          64.3923   92.1227   10.7561 C.ar    1  UNL1       -0.0050
     20 C          66.1613   94.5304   11.8453 C.3     1  UNL1        0.0339
     21 C          66.6446   93.3965   10.9905 C.3     1  UNL1        0.1071
     22 C          67.1279   92.2626   10.1357 C.3     1  UNL1        0.0339
     23 O          67.7001   94.2874   10.4055 O.3     1  UNL1       -0.3827
     24 H          68.5473   93.8154   10.3864 H       1  UNL1        0.2107
     25 C          62.9547   84.9657   10.0018 C.3     1  UNL1        0.0307
     26 C          62.7719   84.0874   11.2039 C.ar    1  UNL1       -0.0167
     27 C          62.9042   82.5990   11.0725 C.ar    1  UNL1        0.0268
     28 C          62.7213   81.7207   12.2746 C.ar    1  UNL1        0.1556
     29 F          62.8537   80.2324   12.1431 F       1  UNL1       -0.2028
     30 C          62.4062   82.3308   13.6082 C.ar    1  UNL1        0.1037
     31 N          62.2233   81.4525   14.8103 N.pl3   1  UNL1       -0.3529
     32 C          62.2739   83.8191   13.7397 C.ar    1  UNL1        0.1538
     33 C          62.4567   84.6975   12.5375 C.ar    1  UNL1        0.0341
     34 H          62.3102   80.4756   14.7241 H       1  UNL1        0.1425
     35 H          62.0165   81.8529   15.6856 H       1  UNL1        0.1425
     36 O          61.9587   84.4291   15.0733 O.3     1  UNL1       -0.4621
     37 C          63.0140   85.1930   15.8169 C.3     1  UNL1        0.3551
     38 C          64.4034   85.2888   15.2596 C.3     1  UNL1        0.4428
     39 F          65.7927   85.3845   14.7023 F       1  UNL1       -0.1661
     40 F          64.1609   86.7251   14.9018 F       1  UNL1       -0.1661
     41 F          64.6459   83.8524   15.6173 F       1  UNL1       -0.1661
     42 C          62.6800   85.8611   17.1176 C.3     1  UNL1        0.4428
     43 F          62.3460   86.5292   18.4184 F       1  UNL1       -0.1661
     44 F          61.2319   85.8951   16.7283 F       1  UNL1       -0.1661
     45 F          64.1282   85.8271   17.5070 F       1  UNL1       -0.1661
@<TRIPOS>BOND
     1    20    21    1
     2    21    22    1
     3    21    23    1
     4    21    14    1
     5    14    15   ar
     6    15    16   ar
     7    16    17   ar
     8    17    18   ar
     9    18    13    1
    10    13    11    1
    11     1    11    1
    12     1     2    1
    13     2     3    1
    14     3     4    2
    15     3     5    2
    16     3     6    1
    17     6     7    1
    18     7    25    1
    19    25    26    1
    20    26    27   ar
    21    27    28   ar
    22    28    29    1
    23    28    30   ar
    24    30    31    1
    25    30    32   ar
    26    32    36    1
    27    36    37    1
    28    37    38    1
    29    38    39    1
    30    38    40    1
    31    38    41    1
    32    37    42    1
    33    42    43    1
    34    42    44    1
    35    42    45    1
    36    32    33   ar
    37     7     8    1
    38     8     9    1
    39    18    19   ar
    40    19    14   ar
    41     8     1    1
    42    33    26   ar
    43    23    24    1
    44    11    12    1
    45    31    34    1
    46    31    35    1
    47     9    10    1
@<TRIPOS>MOLECULE
*****
 45 47 0 0 0
SMALL
GASTEIGER

@<TRIPOS>ATOM
      1 C          61.1543   88.4639   10.2664 C.3     1  UNL1        0.1054
      2 C          60.1089   88.3014    9.2032 C.3     1  UNL1        0.1689
      3 S          60.0262   87.0238    8.4217 S.O2    1  UNL1       -0.0085
      4 O          59.5520   86.0112    7.4218 O.2     1  UNL1       -0.1729
      5 O          58.8987   87.7872    7.7926 O.2     1  UNL1       -0.1729
      6 C          60.9890   85.9086    8.7036 C.3     1  UNL1        0.1536
      7 C          62.0345   86.0711    9.7668 C.3     1  UNL1        0.0562
      8 C          62.1171   87.3488   10.5482 C.3     1  UNL1        0.1285
      9 O          63.1626   87.5113   11.6116 O.3     1  UNL1       -0.3830
     10 H          63.0782   88.3887   12.0166 H       1  UNL1        0.2104
     11 N          61.2370   89.7417   11.0479 N.3     1  UNL1       -0.2915
     12 H          60.2928   90.1257   11.0852 H       1  UNL1        0.1236
     13 C          62.1365   90.8483   10.5830 C.3     1  UNL1        0.0957
     14 C          65.5995   92.4942   11.6071 C.ar    1  UNL1        0.0014
     15 C          65.7617   91.9681   13.0024 C.ar    1  UNL1       -0.0021
     16 C          64.7156   91.0688   13.5913 C.ar    1  UNL1       -0.0005
     17 C          63.5072   90.6956   12.7848 C.ar    1  UNL1       -0.0029
     18 C          63.3450   91.2216   11.3895 C.ar    1  UNL1       -0.0066
     19 C          64.3911   92.1209   10.8006 C.ar    1  UNL1       -0.0050
     20 C          66.1797   94.5134   11.9006 C.3     1  UNL1        0.0339
     21 C          66.6457   93.3935   11.0182 C.3     1  UNL1        0.1071
     22 C          67.1118   92.2735   10.1359 C.3     1  UNL1        0.0339
     23 O          67.6919   94.2928   10.4294 O.3     1  UNL1       -0.3827
     24 H          68.5379   93.8201   10.3870 H       1  UNL1        0.2107
     25 C          62.9973   84.9559   10.0486 C.3     1  UNL1        0.0307
     26 C          62.7954   84.0755   11.2461 C.ar    1  UNL1       -0.0167
     27 C          62.9143   82.5863   11.1107 C.ar    1  UNL1        0.0268
     28 C          62.7125   81.7058   12.3082 C.ar    1  UNL1        0.1556
     29 F          62.8314   80.2167   12.1727 F       1  UNL1       -0.2028
     30 C          62.3917   82.3144   13.6411 C.ar    1  UNL1        0.1037
     31 N          62.1898   81.4340   14.8385 N.pl3   1  UNL1       -0.3529
     32 C          62.2727   83.8035   13.7765 C.ar    1  UNL1        0.1538
     33 C          62.4746   84.6841   12.5790 C.ar    1  UNL1        0.0341
     34 H          62.2679   80.4566   14.7497 H       1  UNL1        0.1425
     35 H          61.9793   81.8335   15.7134 H       1  UNL1        0.1425
     36 O          61.9519   84.4122   15.1094 O.3     1  UNL1       -0.4621
     37 C          62.9927   85.2071   15.8410 C.3     1  UNL1        0.3551
     38 C          62.6490   85.8797   17.1369 C.3     1  UNL1        0.4428
     39 F          62.3053   86.5523   18.4329 F       1  UNL1       -0.1661
     40 F          61.2014   85.8964   16.7443 F       1  UNL1       -0.1661
     41 F          64.0966   85.8629   17.5295 F       1  UNL1       -0.1661
     42 C          64.3770   85.3294   15.2765 C.3     1  UNL1        0.4428
     43 F          65.7613   85.4517   14.7121 F       1  UNL1       -0.1661
     44 F          64.6443   83.8942   15.6212 F       1  UNL1       -0.1661
     45 F          64.1097   86.7646   14.9319 F       1  UNL1       -0.1661
@<TRIPOS>BOND
     1    20    21    1
     2    21    22    1
     3    21    23    1
     4    21    14    1
     5    14    15   ar
     6    15    16   ar
     7    16    17   ar
     8    17    18   ar
     9    18    13    1
    10    13    11    1
    11     1    11    1
    12     1     2    1
    13     2     3    1
    14     3     4    2
    15     3     5    2
    16     3     6    1
    17     6     7    1
    18     7    25    1
    19    25    26    1
    20    26    27   ar
    21    27    28   ar
    22    28    29    1
    23    28    30   ar
    24    30    31    1
    25    30    32   ar
    26    32    36    1
    27    36    37    1
    28    37    38    1
    29    38    39    1
    30    38    40    1
    31    38    41    1
    32    37    42    1
    33    42    43    1
    34    42    44    1
    35    42    45    1
    36    32    33   ar
    37     7     8    1
    38     8     9    1
    39    18    19   ar
    40    19    14   ar
    41     8     1    1
    42    33    26   ar
    43    23    24    1
    44    11    12    1
    45    31    34    1
    46    31    35    1
    47     9    10    1
@<TRIPOS>MOLECULE
*****
 45 47 0 0 0
SMALL
GASTEIGER

@<TRIPOS>ATOM
      1 C          60.7799   88.2791   10.0829 C.3     1  UNL1        0.1054
      2 C          59.8434   87.9835    8.9491 C.3     1  UNL1        0.1689
      3 S          59.9650   86.6941    8.1926 S.O2    1  UNL1       -0.0085
      4 O          59.6854   85.6202    7.1833 O.2     1  UNL1       -0.1729
      5 O          58.8097   87.3150    7.4648 O.2     1  UNL1       -0.1729
      6 C          61.0232   85.7001    8.5698 C.3     1  UNL1        0.1536
      7 C          61.9597   85.9956    9.7036 C.3     1  UNL1        0.0562
      8 C          61.8381   87.2851   10.4601 C.3     1  UNL1        0.1285
      9 O          62.7747   87.5807   11.5940 O.3     1  UNL1       -0.3830
     10 H          62.5612   88.4482   11.9719 H       1  UNL1        0.2104
     11 N          60.6583   89.5686   10.8395 N.3     1  UNL1       -0.2915
     12 H          60.8282   90.3196   10.1706 H       1  UNL1        0.1236
     13 C          61.5449   89.8318   12.0204 C.3     1  UNL1        0.0957
     14 C          64.9509   91.6882   12.8589 C.ar    1  UNL1        0.0014
     15 C          65.2834   92.2869   11.5244 C.ar    1  UNL1       -0.0021
     16 C          64.3697   92.0673   10.3552 C.ar    1  UNL1       -0.0005
     17 C          63.1236   91.2489   10.5205 C.ar    1  UNL1       -0.0029
     18 C          62.7911   90.6502   11.8550 C.ar    1  UNL1       -0.0066
     19 C          63.7048   90.8698   13.0242 C.ar    1  UNL1       -0.0050
     20 C          65.0651   90.9295   14.8366 C.3     1  UNL1        0.0339
     21 C          65.8646   91.9078   14.0281 C.3     1  UNL1        0.1071
     22 C          66.6640   92.8862   13.2196 C.3     1  UNL1        0.0339
     23 O          66.7782   92.1275   15.1973 O.3     1  UNL1       -0.3827
     24 H          67.6999   92.1073   14.8956 H       1  UNL1        0.2107
     25 C          63.0179   85.0017   10.0808 C.3     1  UNL1        0.0307
     26 C          62.8164   84.1054   11.2666 C.ar    1  UNL1       -0.0167
     27 C          62.9357   82.6181   11.1114 C.ar    1  UNL1        0.0268
     28 C          62.7343   81.7218   12.2972 C.ar    1  UNL1        0.1556
     29 F          62.8536   80.2347   12.1420 F       1  UNL1       -0.2028
     30 C          62.4135   82.3127   13.6381 C.ar    1  UNL1        0.1037
     31 N          62.2121   81.4164   14.8238 N.pl3   1  UNL1       -0.3529
     32 C          62.2942   83.7998   13.7932 C.ar    1  UNL1        0.1538
     33 C          62.4957   84.6962   12.6075 C.ar    1  UNL1        0.0341
     34 H          62.2904   80.4403   14.7220 H       1  UNL1        0.1425
     35 H          62.0015   81.8042   15.7039 H       1  UNL1        0.1425
     36 O          61.9735   84.3907   15.1341 O.3     1  UNL1       -0.4621
     37 C          63.0012   85.2087   15.8585 C.3     1  UNL1        0.3551
     38 C          64.3854   85.3426   15.2965 C.3     1  UNL1        0.4428
     39 F          65.7697   85.4764   14.7344 F       1  UNL1       -0.1661
     40 F          64.6567   83.9036   15.6218 F       1  UNL1       -0.1661
     41 F          64.1142   86.7815   14.9712 F       1  UNL1       -0.1661
     42 C          62.6446   85.8928   17.1449 C.3     1  UNL1        0.4428
     43 F          62.2881   86.5770   18.4313 F       1  UNL1       -0.1661
     44 F          61.2023   85.9143   16.7337 F       1  UNL1       -0.1661
     45 F          64.0870   85.8714   17.5561 F       1  UNL1       -0.1661
@<TRIPOS>BOND
     1    20    21    1
     2    21    22    1
     3    21    23    1
     4    21    14    1
     5    14    15   ar
     6    15    16   ar
     7    16    17   ar
     8    17    18   ar
     9    18    13    1
    10    13    11    1
    11     1    11    1
    12     1     2    1
    13     2     3    1
    14     3     4    2
    15     3     5    2
    16     3     6    1
    17     6     7    1
    18     7    25    1
    19    25    26    1
    20    26    27   ar
    21    27    28   ar
    22    28    29    1
    23    28    30   ar
    24    30    31    1
    25    30    32   ar
    26    32    36    1
    27    36    37    1
    28    37    38    1
    29    38    39    1
    30    38    40    1
    31    38    41    1
    32    37    42    1
    33    42    43    1
    34    42    44    1
    35    42    45    1
    36    32    33   ar
    37     7     8    1
    38     8     9    1
    39    18    19   ar
    40    19    14   ar
    41     8     1    1
    42    33    26   ar
    43    23    24    1
    44    11    12    1
    45    31    34    1
    46    31    35    1
    47     9    10    1
@<TRIPOS>MOLECULE
*****
 45 47 0 0 0
SMALL
GASTEIGER

@<TRIPOS>ATOM
      1 C          62.9919   84.2294   14.1292 C.3     1  UNL1        0.1054
      2 C          62.7641   82.7702   14.3917 C.3     1  UNL1        0.1689
      3 S          62.8260   81.7863   13.2612 S.O2    1  UNL1       -0.0085
      4 O          62.7820   80.4797   12.5258 O.2     1  UNL1       -0.1729
      5 O          62.5209   80.8573   14.3986 O.2     1  UNL1       -0.1729
      6 C          63.1159   82.2615   11.8683 C.3     1  UNL1        0.1536
      7 C          63.3437   83.7207   11.6059 C.3     1  UNL1        0.0562
      8 C          63.2818   84.7046   12.7363 C.3     1  UNL1        0.1285
      9 O          63.5096   86.1639   12.4739 O.3     1  UNL1       -0.3830
     10 H          63.4349   86.6574   13.3056 H       1  UNL1        0.2104
     11 N          62.9300   85.2134   15.2597 N.3     1  UNL1       -0.2915
     12 H          62.1408   85.8310   15.0696 H       1  UNL1        0.1236
     13 C          64.1082   86.0942   15.5528 C.3     1  UNL1        0.0957
     14 C          64.3227   89.9882   14.8174 C.ar    1  UNL1        0.0014
     15 C          63.5450   90.5387   15.9760 C.ar    1  UNL1       -0.0021
     16 C          62.9551   89.6077   16.9934 C.ar    1  UNL1       -0.0005
     17 C          63.1428   88.1262   16.8524 C.ar    1  UNL1       -0.0029
     18 C          63.9205   87.5757   15.6939 C.ar    1  UNL1       -0.0066
     19 C          64.5104   88.5067   14.6764 C.ar    1  UNL1       -0.0050
     20 C          63.6846   90.7700   12.9515 C.3     1  UNL1        0.0339
     21 C          64.9126   90.9192   13.8000 C.3     1  UNL1        0.1071
     22 C          66.1406   91.0683   14.6484 C.3     1  UNL1        0.0339
     23 O          65.5025   91.8501   12.7825 O.3     1  UNL1       -0.3827
     24 H          65.8810   92.6221   13.2316 H       1  UNL1        0.2107
     25 C          63.6336   84.1959   10.2130 C.3     1  UNL1        0.0307
     26 C          62.5575   84.8638    9.4093 C.ar    1  UNL1       -0.0167
     27 C          62.3890   84.5290    7.9568 C.ar    1  UNL1        0.0268
     28 C          61.3130   85.1969    7.1531 C.ar    1  UNL1        0.1556
     29 F          61.1445   84.8621    5.7008 F       1  UNL1       -0.2028
     30 C          60.4054   86.1997    7.8018 C.ar    1  UNL1        0.1037
     31 N          59.3294   86.8676    6.9981 N.pl3   1  UNL1       -0.3529
     32 C          60.5739   86.5345    9.2542 C.ar    1  UNL1        0.1538
     33 C          61.6500   85.8666   10.0580 C.ar    1  UNL1        0.0341
     34 H          59.2188   86.6479    6.0449 H       1  UNL1        0.1425
     35 H          58.7337   87.5258    7.4239 H       1  UNL1        0.1425
     36 O          59.6663   87.5373    9.9029 O.3     1  UNL1       -0.4621
     37 C          60.2348   88.7983   10.4833 C.3     1  UNL1        0.3551
     38 C          61.6416   89.2054   10.1590 C.3     1  UNL1        0.4428
     39 F          63.0484   89.6126    9.8348 F       1  UNL1       -0.1661
     40 F          61.2038   89.6255    8.7872 F       1  UNL1       -0.1661
     41 F          62.0794   88.7853   11.5308 F       1  UNL1       -0.1661
     42 C          59.3966   89.6520   11.3879 C.3     1  UNL1        0.4428
     43 F          58.5583   90.5057   12.2926 F       1  UNL1       -0.1661
     44 F          59.8182   90.8733   10.6260 F       1  UNL1       -0.1661
     45 F          58.9750   88.4307   12.1499 F       1  UNL1       -0.1661
@<TRIPOS>BOND
     1    20    21    1
     2    21    22    1
     3    21    23    1
     4    21    14    1
     5    14    15   ar
     6    15    16   ar
     7    16    17   ar
     8    17    18   ar
     9    18    13    1
    10    13    11    1
    11     1    11    1
    12     1     2    1
    13     2     3    1
    14     3     4    2
    15     3     5    2
    16     3     6    1
    17     6     7    1
    18     7    25    1
    19    25    26    1
    20    26    27   ar
    21    27    28   ar
    22    28    29    1
    23    28    30   ar
    24    30    31    1
    25    30    32   ar
    26    32    36    1
    27    36    37    1
    28    37    38    1
    29    38    39    1
    30    38    40    1
    31    38    41    1
    32    37    42    1
    33    42    43    1
    34    42    44    1
    35    42    45    1
    36    32    33   ar
    37     7     8    1
    38     8     9    1
    39    18    19   ar
    40    19    14   ar
    41     8     1    1
    42    33    26   ar
    43    23    24    1
    44    11    12    1
    45    31    34    1
    46    31    35    1
    47     9    10    1
@<TRIPOS>MOLECULE
*****
 45 47 0 0 0
SMALL
GASTEIGER

@<TRIPOS>ATOM
      1 C          62.7899   88.0328   12.0965 C.3     1  UNL1        0.1054
      2 C          62.3967   88.7073   10.8157 C.3     1  UNL1        0.1689
      3 S          62.5550   90.1918   10.6706 S.O2    1  UNL1       -0.0085
      4 O          62.5171   91.5600   10.0570 O.2     1  UNL1       -0.1729
      5 O          61.9904   89.8570    9.3218 O.2     1  UNL1       -0.1729
      6 C          63.1064   91.0019   11.8062 C.3     1  UNL1        0.1536
      7 C          63.4996   90.3274   13.0870 C.3     1  UNL1        0.0562
      8 C          63.3413   88.8429   13.2322 C.3     1  UNL1        0.1285
      9 O          63.7345   88.1684   14.5130 O.3     1  UNL1       -0.3830
     10 H          63.5695   87.2153   14.4404 H       1  UNL1        0.2104
     11 N          62.6317   86.5482   12.2417 N.3     1  UNL1       -0.2915
     12 H          63.4200   86.2213   12.8004 H       1  UNL1        0.1236
     13 C          62.5747   85.6772   11.0219 C.3     1  UNL1        0.0957
     14 C          62.8364   81.9691   12.4118 C.ar    1  UNL1        0.0014
     15 C          63.6313   81.3133   11.3219 C.ar    1  UNL1       -0.0021
     16 C          64.0741   82.1121   10.1320 C.ar    1  UNL1       -0.0005
     17 C          63.7219   83.5667   10.0320 C.ar    1  UNL1       -0.0029
     18 C          62.9270   84.2225   11.1219 C.ar    1  UNL1       -0.0066
     19 C          62.4842   83.4237   12.3118 C.ar    1  UNL1       -0.0050
     20 C          62.4951   79.9106   12.7938 C.3     1  UNL1        0.0339
     21 C          62.3937   81.1703   13.6017 C.3     1  UNL1        0.1071
     22 C          62.2922   82.4301   14.4097 C.3     1  UNL1        0.0339
     23 O          61.9509   80.3716   14.7917 O.3     1  UNL1       -0.3827
     24 H          62.4341   80.6687   15.5785 H       1  UNL1        0.2107
     25 C          64.0510   91.1375   14.2227 C.3     1  UNL1        0.0307
     26 C          65.5076   91.4945   14.2514 C.ar    1  UNL1       -0.0167
     27 C          66.1955   91.7334   15.5628 C.ar    1  UNL1        0.0268
     28 C          67.6521   92.0904   15.5916 C.ar    1  UNL1        0.1556
     29 F          68.3400   92.3293   16.9029 F       1  UNL1       -0.2028
     30 C          68.4208   92.2085   14.3089 C.ar    1  UNL1        0.1037
     31 N          69.8774   92.5655   14.3377 N.pl3   1  UNL1       -0.3529
     32 C          67.7330   91.9696   12.9976 C.ar    1  UNL1        0.1538
     33 C          66.2763   91.6126   12.9688 C.ar    1  UNL1        0.0341
     34 H          70.3289   92.7223   15.1984 H       1  UNL1        0.1425
     35 H          70.3819   92.6430   13.4958 H       1  UNL1        0.1425
     36 O          68.5017   92.0877   11.7149 O.3     1  UNL1       -0.4621
     37 C          67.8282   92.6152   10.4828 C.3     1  UNL1        0.3551
     38 C          68.4696   92.4293    9.1396 C.3     1  UNL1        0.4428
     39 F          69.1109   92.2435    7.7964 F       1  UNL1       -0.1661
     40 F          68.7537   93.9006    9.0717 F       1  UNL1       -0.1661
     41 F          68.1854   90.9581    9.2075 F       1  UNL1       -0.1661
     42 C          66.5134   93.3286   10.5938 C.3     1  UNL1        0.4428
     43 F          65.1986   94.0419   10.7048 F       1  UNL1       -0.1661
     44 F          65.8066   92.1036   10.0938 F       1  UNL1       -0.1661
     45 F          67.2201   94.5535   11.0937 F       1  UNL1       -0.1661
@<TRIPOS>BOND
     1    20    21    1
     2    21    22    1
     3    21    23    1
     4    21    14    1
     5    14    15   ar
     6    15    16   ar
     7    16    17   ar
     8    17    18   ar
     9    18    13    1
    10    13    11    1
    11     1    11    1
    12     1     2    1
    13     2     3    1
    14     3     4    2
    15     3     5    2
    16     3     6    1
    17     6     7    1
    18     7    25    1
    19    25    26    1
    20    26    27   ar
    21    27    28   ar
    22    28    29    1
    23    28    30   ar
    24    30    31    1
    25    30    32   ar
    26    32    36    1
    27    36    37    1
    28    37    38    1
    29    38    39    1
    30    38    40    1
    31    38    41    1
    32    37    42    1
    33    42    43    1
    34    42    44    1
    35    42    45    1
    36    32    33   ar
    37     7     8    1
    38     8     9    1
    39    18    19   ar
    40    19    14   ar
    41     8     1    1
    42    33    26   ar
    43    23    24    1
    44    11    12    1
    45    31    34    1
    46    31    35    1
    47     9    10    1
@<TRIPOS>MOLECULE
*****
 45 47 0 0 0
SMALL
GASTEIGER

@<TRIPOS>ATOM
      1 C          63.4173   90.7777   13.3442 C.3     1  UNL1        0.1054
      2 C          64.5818   91.5395   12.7844 C.3     1  UNL1        0.1689
      3 S          64.5881   91.9454   11.3404 S.O2    1  UNL1       -0.0085
      4 O          65.0527   92.5474   10.0475 O.2     1  UNL1       -0.1729
      5 O          65.9077   92.5105   11.7755 O.2     1  UNL1       -0.1729
      6 C          63.4299   91.5893   10.4562 C.3     1  UNL1        0.1536
      7 C          62.2654   90.8274   11.0160 C.3     1  UNL1        0.0562
      8 C          62.2591   90.4216   12.4600 C.3     1  UNL1        0.1285
      9 O          61.0945   89.6597   13.0199 O.3     1  UNL1       -0.3830
     10 H          61.2490   89.4780   13.9601 H       1  UNL1        0.2104
     11 N          63.4109   90.3718   14.7883 N.3     1  UNL1       -0.2915
     12 H          63.6042   91.2132   15.3315 H       1  UNL1        0.1236
     13 C          64.3582   89.3154   15.2746 C.3     1  UNL1        0.0957
     14 C          63.5816   85.4431   15.6655 C.ar    1  UNL1        0.0014
     15 C          62.7591   85.4442   16.9198 C.ar    1  UNL1       -0.0021
     16 C          62.4695   86.7356   17.6257 C.ar    1  UNL1       -0.0005
     17 C          63.0025   88.0260   17.0773 C.ar    1  UNL1       -0.0029
     18 C          63.8251   88.0249   15.8230 C.ar    1  UNL1       -0.0066
     19 C          64.1147   86.7335   15.1171 C.ar    1  UNL1       -0.0050
     20 C          62.5680   83.5924   15.4482 C.3     1  UNL1        0.0339
     21 C          63.8712   84.1517   14.9595 C.3     1  UNL1        0.1071
     22 C          65.1744   84.7110   14.4709 C.3     1  UNL1        0.0339
     23 O          64.1607   82.8602   14.2536 O.3     1  UNL1       -0.3827
     24 H          64.4822   83.0466   13.3576 H       1  UNL1        0.2107
     25 C          61.1072   90.4714   10.1318 C.3     1  UNL1        0.0307
     26 C          61.0417   89.1169    9.4907 C.ar    1  UNL1       -0.0167
     27 C          59.8357   88.7236    8.6900 C.ar    1  UNL1        0.0268
     28 C          59.7702   87.3691    8.0490 C.ar    1  UNL1        0.1556
     29 F          58.5642   86.9759    7.2483 F       1  UNL1       -0.2028
     30 C          60.9105   86.4079    8.2086 C.ar    1  UNL1        0.1037
     31 N          60.8450   85.0534    7.5675 N.pl3   1  UNL1       -0.3529
     32 C          62.1165   86.8011    9.0092 C.ar    1  UNL1        0.1538
     33 C          62.1820   88.1556    9.6503 C.ar    1  UNL1        0.0341
     34 H          60.0535   84.7953    7.0420 H       1  UNL1        0.1425
     35 H          61.5935   84.4225    7.6722 H       1  UNL1        0.1425
     36 O          63.2568   85.8398    9.1688 O.3     1  UNL1       -0.4621
     37 C          63.2269   84.8158   10.2646 C.3     1  UNL1        0.3551
     38 C          63.9453   83.5105   10.0912 C.3     1  UNL1        0.4428
     39 F          64.6637   82.2052    9.9177 F       1  UNL1       -0.1661
     40 F          64.3994   83.5707   11.5195 F       1  UNL1       -0.1661
     41 F          63.4912   83.4504    8.6628 F       1  UNL1       -0.1661
     42 C          62.4785   85.0972   11.5337 C.3     1  UNL1        0.4428
     43 F          61.7302   85.3786   12.8029 F       1  UNL1       -0.1661
     44 F          63.3601   86.2833   11.7906 F       1  UNL1       -0.1661
     45 F          61.5970   83.9111   11.2769 F       1  UNL1       -0.1661
@<TRIPOS>BOND
     1    20    21    1
     2    21    22    1
     3    21    23    1
     4    21    14    1
     5    14    15   ar
     6    15    16   ar
     7    16    17   ar
     8    17    18   ar
     9    18    13    1
    10    13    11    1
    11     1    11    1
    12     1     2    1
    13     2     3    1
    14     3     4    2
    15     3     5    2
    16     3     6    1
    17     6     7    1
    18     7    25    1
    19    25    26    1
    20    26    27   ar
    21    27    28   ar
    22    28    29    1
    23    28    30   ar
    24    30    31    1
    25    30    32   ar
    26    32    36    1
    27    36    37    1
    28    37    38    1
    29    38    39    1
    30    38    40    1
    31    38    41    1
    32    37    42    1
    33    42    43    1
    34    42    44    1
    35    42    45    1
    36    32    33   ar
    37     7     8    1
    38     8     9    1
    39    18    19   ar
    40    19    14   ar
    41     8     1    1
    42    33    26   ar
    43    23    24    1
    44    11    12    1
    45    31    34    1
    46    31    35    1
    47     9    10    1
@<TRIPOS>MOLECULE
*****
 45 47 0 0 0
SMALL
GASTEIGER

@<TRIPOS>ATOM
      1 C          65.2397   91.2774   13.9419 C.3     1  UNL1        0.1054
      2 C          66.1522   92.4671   13.8972 C.3     1  UNL1        0.1689
      3 S          66.2255   93.3099   12.6585 S.O2    1  UNL1       -0.0085
      4 O          66.6402   94.4052   11.7214 O.2     1  UNL1       -0.1729
      5 O          67.2086   94.0373   13.5269 O.2     1  UNL1       -0.1729
      6 C          65.3864   92.9629   11.4645 C.3     1  UNL1        0.1536
      7 C          64.4740   91.7732   11.5093 C.3     1  UNL1        0.0562
      8 C          64.4006   90.9305   12.7480 C.3     1  UNL1        0.1285
      9 O          63.4882   89.7407   12.7928 O.3     1  UNL1       -0.3830
     10 H          63.5611   89.3097   13.6587 H       1  UNL1        0.2104
     11 N          65.1664   90.4346   15.1807 N.3     1  UNL1       -0.2915
     12 H          65.7419   89.6099   15.0102 H       1  UNL1        0.1236
     13 C          63.8387   89.9416   15.6748 C.3     1  UNL1        0.0957
     14 C          63.9842   85.9903   15.3338 C.ar    1  UNL1        0.0014
     15 C          63.2549   85.5716   16.5758 C.ar    1  UNL1       -0.0021
     16 C          62.7201   86.6095   17.5175 C.ar    1  UNL1       -0.0005
     17 C          62.9148   88.0661   17.2172 C.ar    1  UNL1       -0.0029
     18 C          63.6441   88.4849   15.9752 C.ar    1  UNL1       -0.0066
     19 C          64.1788   87.4470   15.0335 C.ar    1  UNL1       -0.0050
     20 C          65.9201   85.3710   14.7263 C.3     1  UNL1        0.0339
     21 C          64.5190   84.9524   14.3921 C.3     1  UNL1        0.1071
     22 C          63.1179   84.5339   14.0578 C.3     1  UNL1        0.0339
     23 O          65.0537   83.9145   13.4504 O.3     1  UNL1       -0.3827
     24 H          64.5843   83.0775   13.5913 H       1  UNL1        0.2107
     25 C          63.6349   91.4262   10.3153 C.3     1  UNL1        0.0307
     26 C          62.3968   90.5965   10.4843 C.ar    1  UNL1       -0.0167
     27 C          61.1662   91.2008   11.0932 C.ar    1  UNL1        0.0268
     28 C          59.9281   90.3711   11.2622 C.ar    1  UNL1        0.1556
     29 F          58.6976   90.9755   11.8709 F       1  UNL1       -0.2028
     30 C          59.9204   88.9370   10.8224 C.ar    1  UNL1        0.1037
     31 N          58.6823   88.1073   10.9914 N.pl3   1  UNL1       -0.3529
     32 C          61.1509   88.3327   10.2136 C.ar    1  UNL1        0.1538
     33 C          62.3891   89.1624   10.0446 C.ar    1  UNL1        0.0341
     34 H          57.8747   88.5040   11.3910 H       1  UNL1        0.1425
     35 H          58.6773   87.1661   10.7028 H       1  UNL1        0.1425
     36 O          61.1433   86.8986    9.7739 O.3     1  UNL1       -0.4621
     37 C          60.7337   86.5454    8.3747 C.3     1  UNL1        0.3551
     38 C          61.5108   85.5214    7.6017 C.3     1  UNL1        0.4428
     39 F          62.2880   84.4975    6.8286 F       1  UNL1       -0.1661
     40 F          62.7720   85.9651    8.2819 F       1  UNL1       -0.1661
     41 F          60.2497   85.0778    6.9215 F       1  UNL1       -0.1661
     42 C          59.5471   87.2161    7.7486 C.3     1  UNL1        0.4428
     43 F          58.3604   87.8868    7.1226 F       1  UNL1       -0.1661
     44 F          58.6335   86.2573    8.4530 F       1  UNL1       -0.1661
     45 F          60.4606   88.1749    7.0443 F       1  UNL1       -0.1661
@<TRIPOS>BOND
     1    20    21    1
     2    21    22    1
     3    21    23    1
     4    21    14    1
     5    14    15   ar
     6    15    16   ar
     7    16    17   ar
     8    17    18   ar
     9    18    13    1
    10    13    11    1
    11     1    11    1
    12     1     2    1
    13     2     3    1
    14     3     4    2
    15     3     5    2
    16     3     6    1
    17     6     7    1
    18     7    25    1
    19    25    26    1
    20    26    27   ar
    21    27    28   ar
    22    28    29    1
    23    28    30   ar
    24    30    31    1
    25    30    32   ar
    26    32    36    1
    27    36    37    1
    28    37    38    1
    29    38    39    1
    30    38    40    1
    31    38    41    1
    32    37    42    1
    33    42    43    1
    34    42    44    1
    35    42    45    1
    36    32    33   ar
    37     7     8    1
    38     8     9    1
    39    18    19   ar
    40    19    14   ar
    41     8     1    1
    42    33    26   ar
    43    23    24    1
    44    11    12    1
    45    31    34    1
    46    31    35    1
    47     9    10    1
@<TRIPOS>MOLECULE
*****
 45 47 0 0 0
SMALL
GASTEIGER

@<TRIPOS>ATOM
      1 C          64.1665   90.5240   12.7433 C.3     1  UNL1        0.1054
      2 C          63.9829   91.4129   11.5491 C.3     1  UNL1        0.1689
      3 S          63.0623   90.9982   10.4399 S.O2    1  UNL1       -0.0085
      4 O          62.3065   91.0414    9.1450 O.2     1  UNL1       -0.1729
      5 O          63.5369   92.3168    9.9052 O.2     1  UNL1       -0.1729
      6 C          62.3253   89.6945   10.5248 C.3     1  UNL1        0.1536
      7 C          62.5088   88.8056   11.7190 C.3     1  UNL1        0.0562
      8 C          63.4294   89.2203   12.8282 C.3     1  UNL1        0.1285
      9 O          63.6130   88.3314   14.0225 O.3     1  UNL1       -0.3830
     10 H          64.2361   88.7447   14.6405 H       1  UNL1        0.2104
     11 N          65.0871   90.9387   13.8526 N.3     1  UNL1       -0.2915
     12 H          64.5218   90.9923   14.6999 H       1  UNL1        0.1236
     13 C          65.8449   92.2295   13.7553 C.3     1  UNL1        0.0957
     14 C          66.8964   94.2652   10.5149 C.ar    1  UNL1        0.0014
     15 C          67.9143   93.3400    9.9168 C.ar    1  UNL1       -0.0021
     16 C          68.2424   92.0446   10.5982 C.ar    1  UNL1       -0.0005
     17 C          67.5526   91.6744   11.8777 C.ar    1  UNL1       -0.0029
     18 C          66.5347   92.5996   12.4758 C.ar    1  UNL1       -0.0066
     19 C          66.2066   93.8950   11.7944 C.ar    1  UNL1       -0.0050
     20 C          66.0068   96.0941   11.1181 C.3     1  UNL1        0.0339
     21 C          66.5683   95.5606    9.8335 C.3     1  UNL1        0.1071
     22 C          67.1298   95.0271    8.5489 C.3     1  UNL1        0.0339
     23 O          66.2402   96.8560    9.1521 O.3     1  UNL1       -0.3827
     24 H          66.9974   97.1406    8.6168 H       1  UNL1        0.2107
     25 C          61.7718   87.5019   11.8039 C.3     1  UNL1        0.0307
     26 C          62.4080   86.2456   11.2873 C.ar    1  UNL1       -0.0167
     27 C          62.4601   85.9834    9.8113 C.ar    1  UNL1        0.0268
     28 C          63.0963   84.7271    9.2947 C.ar    1  UNL1        0.1556
     29 F          63.1483   84.4650    7.8187 F       1  UNL1       -0.2028
     30 C          63.6804   83.7330   10.2540 C.ar    1  UNL1        0.1037
     31 N          64.3166   82.4767    9.7374 N.pl3   1  UNL1       -0.3529
     32 C          63.6284   83.9951   11.7300 C.ar    1  UNL1        0.1538
     33 C          62.9921   85.2514   12.2467 C.ar    1  UNL1        0.0341
     34 H          64.3508   82.3046    8.7687 H       1  UNL1        0.1425
     35 H          64.7000   81.8242   10.3671 H       1  UNL1        0.1425
     36 O          64.2125   83.0009   12.6894 O.3     1  UNL1       -0.4621
     37 C          63.3197   82.2687   13.6469 C.3     1  UNL1        0.3551
     38 C          62.8714   80.8716   13.3355 C.3     1  UNL1        0.4428
     39 F          62.4231   79.4744   13.0241 F       1  UNL1       -0.1661
     40 F          63.7604   80.3441   14.4225 F       1  UNL1       -0.1661
     41 F          61.9825   81.3991   12.2485 F       1  UNL1       -0.1661
     42 C          62.8752   82.9337   14.9158 C.3     1  UNL1        0.4428
     43 F          62.4307   83.5987   16.1847 F       1  UNL1       -0.1661
     44 F          61.5703   82.1974   14.8446 F       1  UNL1       -0.1661
     45 F          64.1801   83.6700   14.9871 F       1  UNL1       -0.1661
@<TRIPOS>BOND
     1    20    21    1
     2    21    22    1
     3    21    23    1
     4    21    14    1
     5    14    15   ar
     6    15    16   ar
     7    16    17   ar
     8    17    18   ar
     9    18    13    1
    10    13    11    1
    11     1    11    1
    12     1     2    1
    13     2     3    1
    14     3     4    2
    15     3     5    2
    16     3     6    1
    17     6     7    1
    18     7    25    1
    19    25    26    1
    20    26    27   ar
    21    27    28   ar
    22    28    29    1
    23    28    30   ar
    24    30    31    1
    25    30    32   ar
    26    32    36    1
    27    36    37    1
    28    37    38    1
    29    38    39    1
    30    38    40    1
    31    38    41    1
    32    37    42    1
    33    42    43    1
    34    42    44    1
    35    42    45    1
    36    32    33   ar
    37     7     8    1
    38     8     9    1
    39    18    19   ar
    40    19    14   ar
    41     8     1    1
    42    33    26   ar
    43    23    24    1
    44    11    12    1
    45    31    34    1
    46    31    35    1
    47     9    10    1
@<TRIPOS>MOLECULE
*****
 45 47 0 0 0
SMALL
GASTEIGER

@<TRIPOS>ATOM
      1 C          65.1891   91.0699   13.7973 C.3     1  UNL1        0.1054
      2 C          66.0962   92.2644   13.8149 C.3     1  UNL1        0.1689
      3 S          66.1573   93.1772   12.6262 S.O2    1  UNL1       -0.0085
      4 O          66.5608   94.3265   11.7508 O.2     1  UNL1       -0.1729
      5 O          67.1434   93.8581   13.5283 O.2     1  UNL1       -0.1729
      6 C          65.3112   92.8955   11.4200 C.3     1  UNL1        0.1536
      7 C          64.4042   91.7010   11.4025 C.3     1  UNL1        0.0562
      8 C          64.3431   90.7882   12.5911 C.3     1  UNL1        0.1285
      9 O          63.4360   89.5936   12.5736 O.3     1  UNL1       -0.3830
     10 H          63.5168   89.1140   13.4129 H       1  UNL1        0.2104
     11 N          65.1280   90.1570   14.9860 N.3     1  UNL1       -0.2915
     12 H          65.5775   89.2839   14.7102 H       1  UNL1        0.1236
     13 C          63.8016   89.7913   15.5834 C.3     1  UNL1        0.0957
     14 C          63.7541   85.8266   15.7536 C.ar    1  UNL1        0.0014
     15 C          63.0835   85.6077   17.0773 C.ar    1  UNL1       -0.0021
     16 C          62.6523   86.7833   17.9032 C.ar    1  UNL1       -0.0005
     17 C          62.8917   88.1778   17.4052 C.ar    1  UNL1       -0.0029
     18 C          63.5622   88.3967   16.0815 C.ar    1  UNL1       -0.0066
     19 C          63.9934   87.2211   15.2556 C.ar    1  UNL1       -0.0050
     20 C          65.4292   85.3879   14.5282 C.3     1  UNL1        0.0339
     21 C          64.1853   84.6509   14.9278 C.3     1  UNL1        0.1071
     22 C          62.9414   83.9140   15.3273 C.3     1  UNL1        0.0339
     23 O          64.6165   83.4753   14.1019 O.3     1  UNL1       -0.3827
     24 H          64.4909   82.6592   14.6109 H       1  UNL1        0.2107
     25 C          63.5582   91.4194   10.1963 C.3     1  UNL1        0.0307
     26 C          62.3220   90.5798   10.3266 C.ar    1  UNL1       -0.0167
     27 C          61.1510   91.0864   11.1155 C.ar    1  UNL1        0.0268
     28 C          59.9149   90.2469   11.2458 C.ar    1  UNL1        0.1556
     29 F          58.7440   90.7535   12.0346 F       1  UNL1       -0.2028
     30 C          59.8497   88.9007   10.5874 C.ar    1  UNL1        0.1037
     31 N          58.6135   88.0611   10.7178 N.pl3   1  UNL1       -0.3529
     32 C          61.0206   88.3940    9.7986 C.ar    1  UNL1        0.1538
     33 C          62.2568   89.2336    9.6682 C.ar    1  UNL1        0.0341
     34 H          57.8450   88.3936   11.2355 H       1  UNL1        0.1425
     35 H          58.5707   87.1775   10.2856 H       1  UNL1        0.1425
     36 O          60.9553   87.0479    9.1402 O.3     1  UNL1       -0.4621
     37 C          61.9587   85.9904    9.4941 C.3     1  UNL1        0.3551
     38 C          62.2317   85.6672   10.9332 C.3     1  UNL1        0.4428
     39 F          62.5047   85.3441   12.3724 F       1  UNL1       -0.1661
     40 F          62.9509   86.9742   11.0903 F       1  UNL1       -0.1661
     41 F          61.5125   84.3603   10.7762 F       1  UNL1       -0.1661
     42 C          62.6890   85.2563    8.4090 C.3     1  UNL1        0.4428
     43 F          63.4194   84.5221    7.3239 F       1  UNL1       -0.1661
     44 F          61.6594   85.7029    7.4139 F       1  UNL1       -0.1661
     45 F          63.7187   84.8096    9.4041 F       1  UNL1       -0.1661
@<TRIPOS>BOND
     1    20    21    1
     2    21    22    1
     3    21    23    1
     4    21    14    1
     5    14    15   ar
     6    15    16   ar
     7    16    17   ar
     8    17    18   ar
     9    18    13    1
    10    13    11    1
    11     1    11    1
    12     1     2    1
    13     2     3    1
    14     3     4    2
    15     3     5    2
    16     3     6    1
    17     6     7    1
    18     7    25    1
    19    25    26    1
    20    26    27   ar
    21    27    28   ar
    22    28    29    1
    23    28    30   ar
    24    30    31    1
    25    30    32   ar
    26    32    36    1
    27    36    37    1
    28    37    38    1
    29    38    39    1
    30    38    40    1
    31    38    41    1
    32    37    42    1
    33    42    43    1
    34    42    44    1
    35    42    45    1
    36    32    33   ar
    37     7     8    1
    38     8     9    1
    39    18    19   ar
    40    19    14   ar
    41     8     1    1
    42    33    26   ar
    43    23    24    1
    44    11    12    1
    45    31    34    1
    46    31    35    1
    47     9    10    1
