@<TRIPOS>MOLECULE
*****
 37 40 0 0 0
SMALL
GASTEIGER

@<TRIPOS>ATOM
      1 C          62.6745   88.6342   11.5107 C.3     1  UNL1        0.0468
      2 C          61.8381   89.8669   10.0319 C.3     1  UNL1        0.0069
      3 C          63.1915   88.7291   12.3190 C.3     1  UNL1        0.0500
      4 C          63.5554   88.1191   12.9713 C.3     1  UNL1        0.1694
      5 C          63.8988   86.9593   13.6591 C.3     1  UNL1        0.0435
      6 C          64.6404   86.5257   14.8888 C.3     1  UNL1        0.0040
      7 C          63.4601   86.9859   12.9600 C.3     1  UNL1        0.0038
      8 C          64.0014   89.4688   13.5122 C.3     1  UNL1        0.0001
      9 C          63.0053   87.0232   12.2340 C.3     1  UNL1        0.0001
     10 C          62.7716   86.3773   11.9430 C.3     1  UNL1        0.0005
     11 C          62.5230   85.6541   11.6379 C.3     1  UNL1        0.0093
     12 C          62.2706   84.1919   11.4180 C.3     1  UNL1        0.0082
     13 C          62.9189   83.4359   12.5396 C.3     1  UNL1        0.0645
     14 C          63.5720   84.4308   13.4527 C.2     1  UNL1        0.1504
     15 O          64.3357   84.1109   14.7035 O.2     1  UNL1       -0.2961
     16 C          63.3273   85.8017   12.8954 C.3     1  UNL1        0.0610
     17 C          62.3046   86.9326   11.1338 C.3     1  UNL1        0.0276
     18 C          61.2124   85.8965    9.5294 C.3     1  UNL1        0.0025
     19 C          62.3071   87.8900   11.0197 C.3     1  UNL1        0.1141
     20 O          61.2195   88.5260    9.2162 O.3     1  UNL1       -0.3841
     21 H          61.2496   89.4929    9.1446 H       1  UNL1        0.2103
     22 C          63.7856   91.6543   10.8102 C.2     1  UNL1       -0.0048
     23 C          62.7446   90.7269   11.3637 C.2     1  UNL1       -0.0243
     24 O          64.6474   89.1552   14.5756 O.3     1  UNL1       -0.4516
     25 C          64.7949   90.6474   14.5401 C.2     1  UNL1        0.3283
     26 O          63.5986   91.5248   14.7616 O.2     1  UNL1       -0.2491
     27 C          66.1386   91.2624   14.2831 C.3     1  UNL1        0.1714
     28 S          66.2378   92.6976   13.8580 S.3     1  UNL1       -0.1019
     29 C          66.6107   93.0374   12.4454 C.ar    1  UNL1        0.0255
     30 C          67.4065   92.0657   11.6254 C.ar    1  UNL1        0.0061
     31 C          67.7794   92.4056   10.2128 C.ar    1  UNL1        0.0003
     32 C          67.3564   93.7171    9.6203 C.ar    1  UNL1       -0.0018
     33 C          66.5606   94.6888   10.4403 C.ar    1  UNL1        0.0074
     34 C          66.1877   94.3489   11.8529 C.ar    1  UNL1        0.0043
     35 C          66.1377   96.0003    9.8478 C.3     1  UNL1        0.1636
     36 O          64.6847   96.2763    9.5971 O.3     1  UNL1       -0.3772
     37 H          64.3549   95.6745    8.9115 H       1  UNL1        0.2109
@<TRIPOS>BOND
     1    22    23    2
     2    23     1    1
     3     1     2    1
     4     1     3    1
     5     3     4    1
     6     4    24    1
     7    24    25    1
     8    25    26    2
     9    25    27    1
    10    27    28    1
    11    28    29    1
    12    29    30   ar
    13    30    31   ar
    14    31    32   ar
    15    32    33   ar
    16    33    35    1
    17    35    36    1
    18    33    34   ar
    19     4     5    1
    20     5     6    1
    21     5     7    1
    22     7     8    1
    23     7     9    1
    24     9    10    1
    25    11    10    1
    26    11    12    1
    27    12    13    1
    28    13    14    1
    29    14    15    2
    30    16    14    1
    31    11    17    1
    32    17    18    1
    33    17    19    1
    34    19    20    1
    35    19     1    1
    36    34    29   ar
    37    16     5    1
    38    16    11    1
    39    36    37    1
    40    20    21    1
@<TRIPOS>MOLECULE
*****
 37 40 0 0 0
SMALL
GASTEIGER

@<TRIPOS>ATOM
      1 C          63.3522   87.1879   12.8471 C.3     1  UNL1        0.0468
      2 C          64.2747   85.9221   14.2444 C.3     1  UNL1        0.0069
      3 C          63.2219   88.1331   12.7081 C.3     1  UNL1        0.0500
      4 C          62.7827   88.6696   12.0379 C.3     1  UNL1        0.1694
      5 C          62.0684   89.0652   10.9113 C.3     1  UNL1        0.0435
      6 C          61.5889   90.3127   10.2301 C.3     1  UNL1        0.0040
      7 C          62.2339   88.2835   11.1197 C.3     1  UNL1        0.0038
      8 C          63.3212   89.7260   12.9905 C.3     1  UNL1        0.0001
      9 C          62.4106   87.4749   11.3442 C.3     1  UNL1        0.0001
     10 C          62.1599   86.9331   10.8969 C.3     1  UNL1        0.0005
     11 C          61.8747   86.3498   10.3905 C.3     1  UNL1        0.0093
     12 C          61.2115   85.6194    9.2606 C.3     1  UNL1        0.0082
     13 C          60.5988   86.6385    8.3462 C.3     1  UNL1        0.0645
     14 C          60.8834   87.9987    8.9109 C.2     1  UNL1        0.1504
     15 O          60.4547   89.3075    8.3165 O.2     1  UNL1       -0.2961
     16 C          61.6720   87.8203   10.1744 C.3     1  UNL1        0.0610
     17 C          62.6068   86.2011   11.5646 C.3     1  UNL1        0.0276
     18 C          62.4531   84.0457   11.1511 C.3     1  UNL1        0.0025
     19 C          63.0974   86.3876   12.3734 C.3     1  UNL1        0.1141
     20 O          63.8006   84.5580   13.3724 O.3     1  UNL1       -0.3841
     21 H          64.2866   84.7956   14.1776 H       1  UNL1        0.2103
     22 C          63.9511   88.3293   15.8777 C.2     1  UNL1       -0.0048
     23 C          64.4023   87.7113   14.5876 C.2     1  UNL1       -0.0243
     24 O          62.9364   90.8250   12.4514 O.3     1  UNL1       -0.4516
     25 C          63.9966   91.3367   13.3809 C.2     1  UNL1        0.3283
     26 O          63.6670   91.6043   14.8196 O.2     1  UNL1       -0.2491
     27 C          65.3862   91.5807   12.8720 C.3     1  UNL1        0.1714
     28 S          65.8255   92.9734   12.5289 S.3     1  UNL1       -0.1019
     29 C          66.5882   93.2287   11.2627 C.ar    1  UNL1        0.0255
     30 C          67.5960   92.2283   10.7795 C.ar    1  UNL1        0.0061
     31 C          68.3586   92.4837    9.5133 C.ar    1  UNL1        0.0003
     32 C          68.1135   93.7394    8.7304 C.ar    1  UNL1       -0.0018
     33 C          67.1057   94.7399    9.2136 C.ar    1  UNL1        0.0074
     34 C          66.3431   94.4845   10.4798 C.ar    1  UNL1        0.0043
     35 C          66.8606   95.9957    8.4307 C.3     1  UNL1        0.1636
     36 O          68.0168   96.8486    7.9999 O.3     1  UNL1       -0.3772
     37 H          68.4489   97.2265    8.7818 H       1  UNL1        0.2109
@<TRIPOS>BOND
     1    22    23    2
     2    23     1    1
     3     1     2    1
     4     1     3    1
     5     3     4    1
     6     4    24    1
     7    24    25    1
     8    25    26    2
     9    25    27    1
    10    27    28    1
    11    28    29    1
    12    29    30   ar
    13    30    31   ar
    14    31    32   ar
    15    32    33   ar
    16    33    35    1
    17    35    36    1
    18    33    34   ar
    19     4     5    1
    20     5     6    1
    21     5     7    1
    22     7     8    1
    23     7     9    1
    24     9    10    1
    25    11    10    1
    26    11    12    1
    27    12    13    1
    28    13    14    1
    29    14    15    2
    30    16    14    1
    31    11    17    1
    32    17    18    1
    33    17    19    1
    34    19    20    1
    35    19     1    1
    36    34    29   ar
    37    16     5    1
    38    16    11    1
    39    36    37    1
    40    20    21    1
@<TRIPOS>MOLECULE
*****
 37 40 0 0 0
SMALL
GASTEIGER

@<TRIPOS>ATOM
      1 C          62.6566   88.4108   11.5279 C.3     1  UNL1        0.0468
      2 C          61.8692   89.6136    9.9985 C.3     1  UNL1        0.0069
      3 C          63.1128   88.5238   12.3698 C.3     1  UNL1        0.0500
      4 C          63.4579   87.9269   13.0439 C.3     1  UNL1        0.1694
      5 C          63.8045   86.7796   13.7509 C.3     1  UNL1        0.0435
      6 C          64.4791   86.3722   15.0272 C.3     1  UNL1        0.0040
      7 C          63.4136   86.7907   13.0235 C.3     1  UNL1        0.0038
      8 C          63.8062   89.2919   13.6172 C.3     1  UNL1        0.0001
      9 C          63.0080   86.8120   12.2682 C.3     1  UNL1        0.0001
     10 C          62.8234   86.1580   11.9605 C.3     1  UNL1        0.0005
     11 C          62.6282   85.4262   11.6374 C.3     1  UNL1        0.0093
     12 C          62.4561   83.9556   11.3973 C.3     1  UNL1        0.0082
     13 C          63.0593   83.2227   12.5588 C.3     1  UNL1        0.0645
     14 C          63.6042   84.2403   13.5166 C.2     1  UNL1        0.1504
     15 O          64.2944   83.9474   14.8158 O.2     1  UNL1       -0.2961
     16 C          63.3378   85.6022   12.9472 C.3     1  UNL1        0.0610
     17 C          62.3885   86.6967   11.1226 C.3     1  UNL1        0.0276
     18 C          61.4547   85.6223    9.4450 C.3     1  UNL1        0.0025
     19 C          62.3566   87.6539   11.0112 C.3     1  UNL1        0.1141
     20 O          61.3672   88.2513    9.1392 O.3     1  UNL1       -0.3841
     21 H          61.3595   89.2189    9.0722 H       1  UNL1        0.2103
     22 C          63.6778   91.4802   10.9099 C.2     1  UNL1       -0.0048
     23 C          62.6443   90.5053   11.3910 C.2     1  UNL1       -0.0243
     24 O          64.3916   89.0012   14.7215 O.3     1  UNL1       -0.4516
     25 C          63.5387   89.7636   15.6916 C.2     1  UNL1        0.3283
     26 O          62.1334   89.3170   15.9667 O.2     1  UNL1       -0.2491
     27 C          64.0910   90.9725   16.3867 C.3     1  UNL1        0.1714
     28 S          64.6190   92.1239   15.5832 S.3     1  UNL1       -0.1019
     29 C          66.0845   92.2151   15.2766 C.ar    1  UNL1        0.0255
     30 C          67.0476   92.6506   16.3409 C.ar    1  UNL1        0.0061
     31 C          68.5131   92.7418   16.0344 C.ar    1  UNL1        0.0003
     32 C          69.0155   92.3974   14.6636 C.ar    1  UNL1       -0.0018
     33 C          68.0524   91.9619   13.5993 C.ar    1  UNL1        0.0074
     34 C          66.5869   91.8707   13.9059 C.ar    1  UNL1        0.0043
     35 C          68.5548   91.6175   12.2286 C.3     1  UNL1        0.1636
     36 O          67.9573   92.2798   11.0225 O.3     1  UNL1       -0.3772
     37 H          67.0312   92.0068   10.9293 H       1  UNL1        0.2109
@<TRIPOS>BOND
     1    22    23    2
     2    23     1    1
     3     1     2    1
     4     1     3    1
     5     3     4    1
     6     4    24    1
     7    24    25    1
     8    25    26    2
     9    25    27    1
    10    27    28    1
    11    28    29    1
    12    29    30   ar
    13    30    31   ar
    14    31    32   ar
    15    32    33   ar
    16    33    35    1
    17    35    36    1
    18    33    34   ar
    19     4     5    1
    20     5     6    1
    21     5     7    1
    22     7     8    1
    23     7     9    1
    24     9    10    1
    25    11    10    1
    26    11    12    1
    27    12    13    1
    28    13    14    1
    29    14    15    2
    30    16    14    1
    31    11    17    1
    32    17    18    1
    33    17    19    1
    34    19    20    1
    35    19     1    1
    36    34    29   ar
    37    16     5    1
    38    16    11    1
    39    36    37    1
    40    20    21    1
@<TRIPOS>MOLECULE
*****
 37 40 0 0 0
SMALL
GASTEIGER

@<TRIPOS>ATOM
      1 C          63.3895   90.7029   12.1592 C.3     1  UNL1        0.0468
      2 C          62.5928   90.3205   10.2553 C.3     1  UNL1        0.0069
      3 C          63.2632   90.4012   13.0662 C.3     1  UNL1        0.0500
      4 C          63.6630   90.6139   13.9175 C.3     1  UNL1        0.1694
      5 C          64.4622   91.1814   14.9052 C.3     1  UNL1        0.0435
      6 C          64.6924   91.1064   16.3855 C.3     1  UNL1        0.0040
      7 C          64.4920   91.3702   14.1018 C.3     1  UNL1        0.0038
      8 C          62.6384   89.5572   14.3008 C.3     1  UNL1        0.0001
      9 C          64.5159   91.5598   13.2658 C.3     1  UNL1        0.0001
     10 C          65.0085   92.0750   13.0457 C.3     1  UNL1        0.0005
     11 C          65.5587   92.6457   12.8230 C.3     1  UNL1        0.0093
     12 C          66.6428   93.6823   12.8261 C.3     1  UNL1        0.0082
     13 C          67.1163   93.8535   14.2391 C.3     1  UNL1        0.0645
     14 C          66.3248   92.9227   15.1092 C.2     1  UNL1        0.1504
     15 O          66.4704   92.7659   16.5939 O.2     1  UNL1       -0.2961
     16 C          65.3621   92.1762   14.2340 C.3     1  UNL1        0.0610
     17 C          64.6597   91.9450   12.0246 C.3     1  UNL1        0.0276
     18 C          65.5301   93.1074   10.3718 C.3     1  UNL1        0.0025
     19 C          63.9680   91.3425   11.7277 C.3     1  UNL1        0.1141
     20 O          63.6304   91.4525    9.5565 O.3     1  UNL1       -0.3841
     21 H          62.9287   90.8311    9.3065 H       1  UNL1        0.2103
     22 C          60.3753   89.4678   11.6744 C.2     1  UNL1       -0.0048
     23 C          61.8704   89.3557   11.6272 C.2     1  UNL1       -0.0243
     24 O          62.7926   89.4515   15.5702 O.3     1  UNL1       -0.4516
     25 C          63.3690   88.1149   15.9323 C.2     1  UNL1        0.3283
     26 O          63.0431   87.4916   17.2571 O.2     1  UNL1       -0.2491
     27 C          64.2714   87.4016   14.9695 C.3     1  UNL1        0.1714
     28 S          64.2799   85.9024   14.9197 S.3     1  UNL1       -0.1019
     29 C          63.9242   85.1922   13.6473 C.ar    1  UNL1        0.0255
     30 C          64.5342   83.8572   13.3379 C.ar    1  UNL1        0.0061
     31 C          64.1785   83.1470   12.0654 C.ar    1  UNL1        0.0003
     32 C          63.2130   83.7718   11.1024 C.ar    1  UNL1       -0.0018
     33 C          62.6030   85.1068   11.4118 C.ar    1  UNL1        0.0074
     34 C          62.9587   85.8170   12.6843 C.ar    1  UNL1        0.0043
     35 C          61.6375   85.7316   10.4489 C.3     1  UNL1        0.1636
     36 O          62.1354   86.6716    9.3912 O.3     1  UNL1       -0.3772
     37 H          62.4879   87.4723    9.8102 H       1  UNL1        0.2109
@<TRIPOS>BOND
     1    22    23    2
     2    23     1    1
     3     1     2    1
     4     1     3    1
     5     3     4    1
     6     4    24    1
     7    24    25    1
     8    25    26    2
     9    25    27    1
    10    27    28    1
    11    28    29    1
    12    29    30   ar
    13    30    31   ar
    14    31    32   ar
    15    32    33   ar
    16    33    35    1
    17    35    36    1
    18    33    34   ar
    19     4     5    1
    20     5     6    1
    21     5     7    1
    22     7     8    1
    23     7     9    1
    24     9    10    1
    25    11    10    1
    26    11    12    1
    27    12    13    1
    28    13    14    1
    29    14    15    2
    30    16    14    1
    31    11    17    1
    32    17    18    1
    33    17    19    1
    34    19    20    1
    35    19     1    1
    36    34    29   ar
    37    16     5    1
    38    16    11    1
    39    36    37    1
    40    20    21    1
@<TRIPOS>MOLECULE
*****
 37 40 0 0 0
SMALL
GASTEIGER

@<TRIPOS>ATOM
      1 C          63.3947   90.7130   12.1439 C.3     1  UNL1        0.0468
      2 C          62.6033   90.3413   10.2357 C.3     1  UNL1        0.0069
      3 C          63.2633   90.4088   13.0494 C.3     1  UNL1        0.0500
      4 C          63.6610   90.6164   13.9030 C.3     1  UNL1        0.1694
      5 C          64.4594   91.1763   14.8956 C.3     1  UNL1        0.0435
      6 C          64.6835   91.0951   16.3766 C.3     1  UNL1        0.0040
      7 C          64.4933   91.3678   14.0931 C.3     1  UNL1        0.0038
      8 C          62.6293   89.5640   14.2787 C.3     1  UNL1        0.0001
      9 C          64.5214   91.5601   13.2578 C.3     1  UNL1        0.0001
     10 C          65.0176   92.0734   13.0414 C.3     1  UNL1        0.0005
     11 C          65.5716   92.6419   12.8227 C.3     1  UNL1        0.0093
     12 C          66.6612   93.6727   12.8336 C.3     1  UNL1        0.0082
     13 C          67.1302   93.8365   14.2489 C.3     1  UNL1        0.0645
     14 C          66.3304   92.9070   15.1128 C.2     1  UNL1        0.1504
     15 O          66.4695   92.7443   16.5974 O.2     1  UNL1       -0.2961
     16 C          65.3671   92.1686   14.2313 C.3     1  UNL1        0.0610
     17 C          64.6720   91.9487   12.0185 C.3     1  UNL1        0.0276
     18 C          65.5550   93.1121   10.3730 C.3     1  UNL1        0.0025
     19 C          63.9783   91.3509   11.7169 C.3     1  UNL1        0.1141
     20 O          63.6496   91.4702    9.5448 O.3     1  UNL1       -0.3841
     21 H          62.9456   90.8534    9.2900 H       1  UNL1        0.2103
     22 C          60.3783   89.4579   11.7298 C.2     1  UNL1       -0.0048
     23 C          61.8705   89.3757   11.6015 C.2     1  UNL1       -0.0243
     24 O          62.7781   89.4531   15.5484 O.3     1  UNL1       -0.4516
     25 C          63.3895   88.1450   15.9545 C.2     1  UNL1        0.3283
     26 O          63.1284   87.5877   17.3224 O.2     1  UNL1       -0.2491
     27 C          64.2619   87.3942   14.9928 C.3     1  UNL1        0.1714
     28 S          64.3648   85.9004   15.0826 S.3     1  UNL1       -0.1019
     29 C          63.8338   85.0438   13.9716 C.ar    1  UNL1        0.0255
     30 C          63.2014   85.6811   12.7700 C.ar    1  UNL1        0.0061
     31 C          62.6703   84.8246   11.6590 C.ar    1  UNL1        0.0003
     32 C          62.7716   83.3307   11.7497 C.ar    1  UNL1       -0.0018
     33 C          63.4040   82.6934   12.9513 C.ar    1  UNL1        0.0074
     34 C          63.9351   83.5500   14.0623 C.ar    1  UNL1        0.0043
     35 C          63.5053   81.1996   13.0420 C.3     1  UNL1        0.1636
     36 O          63.1695   80.5017   14.3266 O.3     1  UNL1       -0.3772
     37 H          63.8143   80.7498   15.0075 H       1  UNL1        0.2109
@<TRIPOS>BOND
     1    22    23    2
     2    23     1    1
     3     1     2    1
     4     1     3    1
     5     3     4    1
     6     4    24    1
     7    24    25    1
     8    25    26    2
     9    25    27    1
    10    27    28    1
    11    28    29    1
    12    29    30   ar
    13    30    31   ar
    14    31    32   ar
    15    32    33   ar
    16    33    35    1
    17    35    36    1
    18    33    34   ar
    19     4     5    1
    20     5     6    1
    21     5     7    1
    22     7     8    1
    23     7     9    1
    24     9    10    1
    25    11    10    1
    26    11    12    1
    27    12    13    1
    28    13    14    1
    29    14    15    2
    30    16    14    1
    31    11    17    1
    32    17    18    1
    33    17    19    1
    34    19    20    1
    35    19     1    1
    36    34    29   ar
    37    16     5    1
    38    16    11    1
    39    36    37    1
    40    20    21    1
@<TRIPOS>MOLECULE
*****
 37 40 0 0 0
SMALL
GASTEIGER

@<TRIPOS>ATOM
      1 C          65.4983   91.6053   13.6500 C.3     1  UNL1        0.0468
      2 C          67.3240   92.5912   13.9673 C.3     1  UNL1        0.0069
      3 C          64.8746   91.0667   14.1506 C.3     1  UNL1        0.0500
      4 C          64.0370   90.6318   13.9526 C.3     1  UNL1        0.1694
      5 C          62.9022   90.1731   13.2908 C.3     1  UNL1        0.0435
      6 C          61.6720   89.3535   13.5455 C.3     1  UNL1        0.0040
      7 C          63.4945   90.6389   12.9530 C.3     1  UNL1        0.0038
      8 C          64.2459   90.2719   15.4154 C.3     1  UNL1        0.0001
      9 C          64.1144   91.1228   12.6109 C.3     1  UNL1        0.0001
     10 C          64.0410   91.3164   11.8942 C.3     1  UNL1        0.0005
     11 C          63.9417   91.5195   11.1025 C.3     1  UNL1        0.0093
     12 C          63.4120   91.6655    9.7067 C.3     1  UNL1        0.0082
     13 C          62.1143   90.9178    9.6230 C.3     1  UNL1        0.0645
     14 C          61.8421   90.3097   10.9669 C.2     1  UNL1        0.1504
     15 O          60.6497   89.4761   11.3323 O.2     1  UNL1       -0.2961
     16 C          62.9715   90.6816   11.8813 C.3     1  UNL1        0.0610
     17 C          64.9821   91.8559   11.9633 C.3     1  UNL1        0.0276
     18 C          65.8072   92.9246   10.2262 C.3     1  UNL1        0.0025
     19 C          65.5428   91.9322   12.7439 C.3     1  UNL1        0.1141
     20 O          67.3471   93.1343   12.3703 O.3     1  UNL1       -0.3841
     21 H          67.8773   93.1823   13.1812 H       1  UNL1        0.2103
     22 C          66.6322   92.6780   16.5499 C.2     1  UNL1       -0.0048
     23 C          66.6391   91.7040   15.4092 C.2     1  UNL1       -0.0243
     24 O          63.2120   89.5632   15.6896 O.3     1  UNL1       -0.4516
     25 C          63.5559   88.1207   15.9155 C.2     1  UNL1        0.3283
     26 O          62.9241   87.3677   17.0486 O.2     1  UNL1       -0.2491
     27 C          64.5314   87.4313   15.0084 C.3     1  UNL1        0.1714
     28 S          64.6049   85.9333   14.9857 S.3     1  UNL1       -0.1019
     29 C          64.0608   85.1733   13.8125 C.ar    1  UNL1        0.0255
     30 C          64.4739   83.7495   13.5844 C.ar    1  UNL1        0.0061
     31 C          63.9298   82.9895   12.4111 C.ar    1  UNL1        0.0003
     32 C          62.9728   83.6535   11.4660 C.ar    1  UNL1       -0.0018
     33 C          62.5598   85.0773   11.6941 C.ar    1  UNL1        0.0074
     34 C          63.1038   85.8373   12.8673 C.ar    1  UNL1        0.0043
     35 C          61.6027   85.7413   10.7489 C.3     1  UNL1        0.1636
     36 O          60.6432   86.7762   11.2573 O.3     1  UNL1       -0.3772
     37 H          60.0104   86.3603   11.8635 H       1  UNL1        0.2109
@<TRIPOS>BOND
     1    22    23    2
     2    23     1    1
     3     1     2    1
     4     1     3    1
     5     3     4    1
     6     4    24    1
     7    24    25    1
     8    25    26    2
     9    25    27    1
    10    27    28    1
    11    28    29    1
    12    29    30   ar
    13    30    31   ar
    14    31    32   ar
    15    32    33   ar
    16    33    35    1
    17    35    36    1
    18    33    34   ar
    19     4     5    1
    20     5     6    1
    21     5     7    1
    22     7     8    1
    23     7     9    1
    24     9    10    1
    25    11    10    1
    26    11    12    1
    27    12    13    1
    28    13    14    1
    29    14    15    2
    30    16    14    1
    31    11    17    1
    32    17    18    1
    33    17    19    1
    34    19    20    1
    35    19     1    1
    36    34    29   ar
    37    16     5    1
    38    16    11    1
    39    36    37    1
    40    20    21    1
@<TRIPOS>MOLECULE
*****
 37 40 0 0 0
SMALL
GASTEIGER

@<TRIPOS>ATOM
      1 C          63.2495   87.5000   12.5993 C.3     1  UNL1        0.0468
      2 C          64.2881   86.5515   14.1573 C.3     1  UNL1        0.0069
      3 C          63.0308   88.3970   12.3215 C.3     1  UNL1        0.0500
      4 C          62.5426   88.7828   11.5848 C.3     1  UNL1        0.1694
      5 C          61.7932   88.9353   10.4223 C.3     1  UNL1        0.0435
      6 C          61.1981   90.0153    9.5682 C.3     1  UNL1        0.0040
      7 C          62.0316   88.2129   10.7437 C.3     1  UNL1        0.0038
      8 C          62.9804   90.0166   12.3590 C.3     1  UNL1        0.0001
      9 C          62.2836   87.4675   11.0847 C.3     1  UNL1        0.0001
     10 C          62.0845   86.8433   10.7281 C.3     1  UNL1        0.0005
     11 C          61.8548   86.1662   10.3198 C.3     1  UNL1        0.0093
     12 C          61.2620   85.2148    9.3231 C.3     1  UNL1        0.0082
     13 C          60.5555   86.0224    8.2749 C.3     1  UNL1        0.0645
     14 C          60.7117   87.4729    8.6238 C.2     1  UNL1        0.1504
     15 O          60.1614   88.6311    7.8455 O.2     1  UNL1       -0.2961
     16 C          61.5147   87.5618    9.8876 C.3     1  UNL1        0.0610
     17 C          62.5987   86.2655   11.4916 C.3     1  UNL1        0.0276
     18 C          62.6477   84.0675   11.4102 C.3     1  UNL1        0.0025
     19 C          63.0705   86.6170   12.2555 C.3     1  UNL1        0.1141
     20 O          63.9433   85.0330   13.5082 O.3     1  UNL1       -0.3841
     21 H          64.4055   85.4338   14.2609 H       1  UNL1        0.2103
     22 C          63.7377   89.0836   15.4453 C.2     1  UNL1       -0.0048
     23 C          64.2474   88.3760   14.2249 C.2     1  UNL1       -0.0243
     24 O          62.4936   90.9808   11.6663 O.3     1  UNL1       -0.4516
     25 C          63.7392   91.7469   12.0002 C.2     1  UNL1        0.3283
     26 O          64.1326   91.9509   13.4333 O.2     1  UNL1       -0.2491
     27 C          64.5913   92.3091   10.9013 C.3     1  UNL1        0.1714
     28 S          65.7196   93.2415   11.2294 S.3     1  UNL1       -0.1019
     29 C          66.7832   92.8197   12.1995 C.ar    1  UNL1        0.0255
     30 C          67.9512   92.0069   11.7250 C.ar    1  UNL1        0.0061
     31 C          69.0148   91.5851   12.6950 C.ar    1  UNL1        0.0003
     32 C          68.9103   91.9761   14.1394 C.ar    1  UNL1       -0.0018
     33 C          67.7423   92.7889   14.6138 C.ar    1  UNL1        0.0074
     34 C          66.6787   93.2107   13.6438 C.ar    1  UNL1        0.0043
     35 C          67.6378   93.1800   16.0582 C.3     1  UNL1        0.1636
     36 O          66.3101   93.1306   16.7544 O.3     1  UNL1       -0.3772
     37 H          65.7157   93.7904   16.3642 H       1  UNL1        0.2109
@<TRIPOS>BOND
     1    22    23    2
     2    23     1    1
     3     1     2    1
     4     1     3    1
     5     3     4    1
     6     4    24    1
     7    24    25    1
     8    25    26    2
     9    25    27    1
    10    27    28    1
    11    28    29    1
    12    29    30   ar
    13    30    31   ar
    14    31    32   ar
    15    32    33   ar
    16    33    35    1
    17    35    36    1
    18    33    34   ar
    19     4     5    1
    20     5     6    1
    21     5     7    1
    22     7     8    1
    23     7     9    1
    24     9    10    1
    25    11    10    1
    26    11    12    1
    27    12    13    1
    28    13    14    1
    29    14    15    2
    30    16    14    1
    31    11    17    1
    32    17    18    1
    33    17    19    1
    34    19    20    1
    35    19     1    1
    36    34    29   ar
    37    16     5    1
    38    16    11    1
    39    36    37    1
    40    20    21    1
@<TRIPOS>MOLECULE
*****
 37 40 0 0 0
SMALL
GASTEIGER

@<TRIPOS>ATOM
      1 C          64.0016   89.9376   13.0519 C.3     1  UNL1        0.0468
      2 C          64.7183   91.8514   13.5308 C.3     1  UNL1        0.0069
      3 C          64.0335   89.0452   13.4157 C.3     1  UNL1        0.0500
      4 C          63.6809   88.1877   13.1506 C.3     1  UNL1        0.1694
      5 C          63.0243   87.1801   12.4506 C.3     1  UNL1        0.0435
      6 C          62.7543   85.7070   12.5337 C.3     1  UNL1        0.0040
      7 C          63.0565   87.9737   12.2244 C.3     1  UNL1        0.0038
      8 C          64.4112   87.8478   14.4406 C.3     1  UNL1        0.0001
      9 C          63.0954   88.7997   11.9974 C.3     1  UNL1        0.0001
     10 C          62.7467   88.9986   11.3686 C.3     1  UNL1        0.0005
     11 C          62.3557   89.1979   10.6719 C.3     1  UNL1        0.0093
     12 C          61.5553   89.1532    9.4041 C.3     1  UNL1        0.0082
     13 C          61.1104   87.7374    9.1865 C.3     1  UNL1        0.0645
     14 C          61.6358   86.9070   10.3198 C.2     1  UNL1        0.1504
     15 O          61.4279   85.4328   10.5029 O.2     1  UNL1       -0.2961
     16 C          62.4055   87.8096   11.2379 C.3     1  UNL1        0.0610
     17 C          63.0732   90.0221   11.5336 C.3     1  UNL1        0.0276
     18 C          62.5425   91.6237   10.1217 C.3     1  UNL1        0.0025
     19 C          63.6038   90.3422   12.2723 C.3     1  UNL1        0.1141
     20 O          63.9997   92.5029   12.1504 O.3     1  UNL1       -0.3841
     21 H          64.5345   92.7770   12.9118 H       1  UNL1        0.2103
     22 C          66.5935   90.9445   14.8165 C.2     1  UNL1       -0.0048
     23 C          65.1588   90.5219   14.7027 C.2     1  UNL1       -0.0243
     24 O          64.2116   86.5862   14.5624 O.3     1  UNL1       -0.4516
     25 C          63.3599   86.3404   15.7725 C.2     1  UNL1        0.3283
     26 O          62.9942   87.4803   16.6763 O.2     1  UNL1       -0.2491
     27 C          62.8741   84.9548   16.0788 C.3     1  UNL1        0.1714
     28 S          63.6925   83.7657   15.6709 S.3     1  UNL1       -0.1019
     29 C          63.2931   82.9554   14.4734 C.ar    1  UNL1        0.0255
     30 C          62.1781   81.9578   14.5808 C.ar    1  UNL1        0.0061
     31 C          61.7788   81.1475   13.3833 C.ar    1  UNL1        0.0003
     32 C          62.4944   81.3349   12.0785 C.ar    1  UNL1       -0.0018
     33 C          63.6094   82.3325   11.9710 C.ar    1  UNL1        0.0074
     34 C          64.0088   83.1427   13.1685 C.ar    1  UNL1        0.0043
     35 C          64.3251   82.5198   10.6661 C.3     1  UNL1        0.1636
     36 O          63.8224   83.5249    9.6726 O.3     1  UNL1       -0.3772
     37 H          62.9536   83.2468    9.3427 H       1  UNL1        0.2109
@<TRIPOS>BOND
     1    22    23    2
     2    23     1    1
     3     1     2    1
     4     1     3    1
     5     3     4    1
     6     4    24    1
     7    24    25    1
     8    25    26    2
     9    25    27    1
    10    27    28    1
    11    28    29    1
    12    29    30   ar
    13    30    31   ar
    14    31    32   ar
    15    32    33   ar
    16    33    35    1
    17    35    36    1
    18    33    34   ar
    19     4     5    1
    20     5     6    1
    21     5     7    1
    22     7     8    1
    23     7     9    1
    24     9    10    1
    25    11    10    1
    26    11    12    1
    27    12    13    1
    28    13    14    1
    29    14    15    2
    30    16    14    1
    31    11    17    1
    32    17    18    1
    33    17    19    1
    34    19    20    1
    35    19     1    1
    36    34    29   ar
    37    16     5    1
    38    16    11    1
    39    36    37    1
    40    20    21    1
@<TRIPOS>MOLECULE
*****
 37 40 0 0 0
SMALL
GASTEIGER

@<TRIPOS>ATOM
      1 C          62.7904   86.6669   11.5780 C.3     1  UNL1        0.0468
      2 C          62.1049   87.6324    9.8449 C.3     1  UNL1        0.0069
      3 C          63.1049   86.9047   12.4579 C.3     1  UNL1        0.0500
      4 C          63.4124   86.4128   13.2282 C.3     1  UNL1        0.1694
      5 C          63.7773   85.3796   14.0858 C.3     1  UNL1        0.0435
      6 C          64.3009   85.1657   15.4751 C.3     1  UNL1        0.0040
      7 C          63.4968   85.2820   13.3153 C.3     1  UNL1        0.0038
      8 C          63.5220   87.8532   13.7042 C.3     1  UNL1        0.0001
      9 C          63.2048   85.1905   12.5142 C.3     1  UNL1        0.0001
     10 C          63.1396   84.4955   12.2511 C.3     1  UNL1        0.0005
     11 C          63.0748   83.7209   11.9793 C.3     1  UNL1        0.0093
     12 C          63.1019   82.2255   11.8660 C.3     1  UNL1        0.0082
     13 C          63.6078   81.6713   13.1648 C.3     1  UNL1        0.0645
     14 C          63.8934   82.8243   14.0808 C.2     1  UNL1        0.1504
     15 O          64.4165   82.7275   15.4833 O.2     1  UNL1       -0.2961
     16 C          63.5640   84.0910   13.3482 C.3     1  UNL1        0.0610
     17 C          62.7738   84.9051   11.3132 C.3     1  UNL1        0.0276
     18 C          62.2162   83.5884    9.6411 C.3     1  UNL1        0.0025
     19 C          62.6533   85.8385   11.1038 C.3     1  UNL1        0.1141
     20 O          61.8853   86.1521    9.0662 O.3     1  UNL1       -0.3841
     21 H          61.7809   87.1025    8.9027 H       1  UNL1        0.2103
     22 C          61.4419   89.6710   11.5295 C.2     1  UNL1       -0.0048
     23 C          62.5678   88.7253   11.2329 C.2     1  UNL1       -0.0243
     24 O          63.9700   87.7294   14.9002 O.3     1  UNL1       -0.4516
     25 C          63.9702   89.2179   14.7151 C.2     1  UNL1        0.3283
     26 O          62.6743   89.9733   14.7109 O.2     1  UNL1       -0.2491
     27 C          65.2662   89.9510   14.5340 C.3     1  UNL1        0.1714
     28 S          65.2751   91.4486   14.4485 S.3     1  UNL1       -0.1019
     29 C          65.2752   92.1233   13.1087 C.ar    1  UNL1        0.0255
     30 C          64.6676   91.4352   11.9225 C.ar    1  UNL1        0.0061
     31 C          64.6677   92.1099   10.5827 C.ar    1  UNL1        0.0003
     32 C          65.2754   93.4727   10.4294 C.ar    1  UNL1       -0.0018
     33 C          65.8830   94.1608   11.6157 C.ar    1  UNL1        0.0074
     34 C          65.8829   93.4861   12.9554 C.ar    1  UNL1        0.0043
     35 C          66.4907   95.5236   11.4624 C.3     1  UNL1        0.1636
     36 O          65.6865   96.7452   11.7957 O.3     1  UNL1       -0.3772
     37 H          64.9476   96.8259   11.1725 H       1  UNL1        0.2109
@<TRIPOS>BOND
     1    22    23    2
     2    23     1    1
     3     1     2    1
     4     1     3    1
     5     3     4    1
     6     4    24    1
     7    24    25    1
     8    25    26    2
     9    25    27    1
    10    27    28    1
    11    28    29    1
    12    29    30   ar
    13    30    31   ar
    14    31    32   ar
    15    32    33   ar
    16    33    35    1
    17    35    36    1
    18    33    34   ar
    19     4     5    1
    20     5     6    1
    21     5     7    1
    22     7     8    1
    23     7     9    1
    24     9    10    1
    25    11    10    1
    26    11    12    1
    27    12    13    1
    28    13    14    1
    29    14    15    2
    30    16    14    1
    31    11    17    1
    32    17    18    1
    33    17    19    1
    34    19    20    1
    35    19     1    1
    36    34    29   ar
    37    16     5    1
    38    16    11    1
    39    36    37    1
    40    20    21    1
