@<TRIPOS>MOLECULE
*****
 29 31 0 0 0
SMALL
GASTEIGER

@<TRIPOS>ATOM
      1 C          64.8460   91.6624   11.9293 C.ar    1  UNL1        0.1534
      2 C          63.8737   91.5049   10.7981 C.ar    1  UNL1        0.0351
      3 C          62.8974   90.3661   10.8013 C.ar    1  UNL1        0.0722
      4 CL         61.9250   90.2086    9.6700 Cl      1  UNL1       -0.0809
      5 C          62.8935   89.3848   11.9358 C.ar    1  UNL1        0.0577
      6 C          63.8659   89.5423   13.0670 C.ar    1  UNL1        0.0462
      7 C          64.8421   90.6811   13.0638 C.ar    1  UNL1        0.1602
      8 F          65.8145   90.8387   14.1950 F       1  UNL1       -0.2027
      9 O          66.2615   92.4208   10.5433 O.2     1  UNL1       -0.1498
     10 S          65.8223   92.8013   11.9261 S.O2    1  UNL1        0.0772
     11 O          65.3831   93.1818   13.3089 O.2     1  UNL1       -0.1498
     12 N          66.7985   93.9401   11.9228 N.pl3   1  UNL1       -0.1936
     13 H          67.4321   94.0474   12.6687 H       1  UNL1        0.1758
     14 C          66.8095   94.9153   10.7831 C.ar    1  UNL1        0.1786
     15 N          67.8334   94.9812    9.6889 N.ar    1  UNL1       -0.2214
     16 C          67.4552   96.1025    8.7671 C.ar    1  UNL1        0.1079
     17 C          66.1976   96.7296    9.2917 C.ar    1  UNL1        0.0588
     18 S          65.7985   95.9959   10.5377 S.2     1  UNL1       -0.0497
     19 N          61.9172   88.2460   11.9390 N.pl3   1  UNL1       -0.3319
     20 H          61.0095   88.3767   12.2970 H       1  UNL1        0.1468
     21 C          62.3240   86.9079   11.3966 C.3     1  UNL1        0.0871
     22 C          61.8436   86.4689   10.0451 C.3     1  UNL1        0.0219
     23 C          62.7493   85.6794    9.1472 C.3     1  UNL1        0.0019
     24 C          62.2689   85.2404    7.7957 C.3     1  UNL1        0.0025
     25 C          60.8828   85.5910    7.3422 C.3     1  UNL1        0.0292
     26 C          59.9771   86.3805    8.2400 C.3     1  UNL1        0.1106
     27 O          58.5909   86.7311    7.7865 O.3     1  UNL1       -0.3845
     28 C          60.4574   86.8195    9.5915 C.3     1  UNL1        0.0309
     29 H          58.4419   86.3742    6.8969 H       1  UNL1        0.2103
@<TRIPOS>BOND
     1     9    10    2
     2    10    11    2
     3    10    12    1
     4    12    14    1
     5    14    15   ar
     6    15    16   ar
     7    16    17   ar
     8    17    18   ar
     9    10     1    1
    10     1     2   ar
    11     2     3   ar
    12     3     4    1
    13     3     5   ar
    14     5    19    1
    15    19    21    1
    16    22    21    1
    17    22    23    1
    18    23    24    1
    19    24    25    1
    20    25    26    1
    21    26    27    1
    22    26    28    1
    23     5     6   ar
    24     6     7   ar
    25     7     8    1
    26    18    14   ar
    27     7     1   ar
    28    28    22    1
    29    12    13    1
    30    19    20    1
    31    27    29    1
@<TRIPOS>MOLECULE
*****
 29 31 0 0 0
SMALL
GASTEIGER

@<TRIPOS>ATOM
      1 C          63.7536   90.6914   11.9516 C.ar    1  UNL1        0.1534
      2 C          62.7959   90.7079   10.7973 C.ar    1  UNL1        0.0351
      3 C          61.9453   89.5060   10.5112 C.ar    1  UNL1        0.0722
      4 CL         60.9876   89.5225    9.3568 Cl      1  UNL1       -0.0809
      5 C          62.0525   88.2875   11.3795 C.ar    1  UNL1        0.0577
      6 C          63.0101   88.2710   12.5338 C.ar    1  UNL1        0.0462
      7 C          63.8607   89.4729   12.8199 C.ar    1  UNL1        0.1602
      8 F          64.8184   89.4565   13.9743 F       1  UNL1       -0.2027
      9 O          65.0987   91.8804   10.8217 O.2     1  UNL1       -0.1498
     10 S          64.6042   91.8934   12.2377 S.O2    1  UNL1        0.0772
     11 O          64.1096   91.9063   13.6538 O.2     1  UNL1       -0.1498
     12 N          65.4548   93.0953   12.5238 N.pl3   1  UNL1       -0.1936
     13 H          65.2971   93.9368   12.0378 H       1  UNL1        0.1758
     14 C          66.5456   93.0150   13.5504 C.ar    1  UNL1        0.1786
     15 N          66.7590   93.9706   14.6867 N.ar    1  UNL1       -0.2214
     16 C          67.9598   93.5113   15.4594 C.ar    1  UNL1        0.1079
     17 C          68.4885   92.2716   14.8006 C.ar    1  UNL1        0.0588
     18 S          67.6144   91.9649   13.6207 S.2     1  UNL1       -0.0497
     19 N          61.2018   87.0856   11.0933 N.pl3   1  UNL1       -0.3319
     20 H          60.3203   86.9931   11.5218 H       1  UNL1        0.1468
     21 C          61.6944   86.0245   10.1545 C.3     1  UNL1        0.0871
     22 C          62.5865   84.9301   10.6610 C.3     1  UNL1        0.0219
     23 C          63.4291   84.1444    9.7005 C.3     1  UNL1        0.0019
     24 C          64.3212   83.0501   10.2071 C.3     1  UNL1        0.0025
     25 C          64.3707   82.7416   11.6741 C.3     1  UNL1        0.0292
     26 C          63.5282   83.5273   12.6347 C.3     1  UNL1        0.1106
     27 O          63.5777   83.2187   14.1018 O.3     1  UNL1       -0.3845
     28 C          62.6361   84.6216   12.1281 C.3     1  UNL1        0.0309
     29 H          64.1990   82.4904   14.2582 H       1  UNL1        0.2103
@<TRIPOS>BOND
     1     9    10    2
     2    10    11    2
     3    10    12    1
     4    12    14    1
     5    14    15   ar
     6    15    16   ar
     7    16    17   ar
     8    17    18   ar
     9    10     1    1
    10     1     2   ar
    11     2     3   ar
    12     3     4    1
    13     3     5   ar
    14     5    19    1
    15    19    21    1
    16    22    21    1
    17    22    23    1
    18    23    24    1
    19    24    25    1
    20    25    26    1
    21    26    27    1
    22    26    28    1
    23     5     6   ar
    24     6     7   ar
    25     7     8    1
    26    18    14   ar
    27     7     1   ar
    28    28    22    1
    29    12    13    1
    30    19    20    1
    31    27    29    1
@<TRIPOS>MOLECULE
*****
 29 31 0 0 0
SMALL
GASTEIGER

@<TRIPOS>ATOM
      1 C          63.8262   86.7274   15.4217 C.ar    1  UNL1        0.1534
      2 C          64.0986   87.5375   14.1891 C.ar    1  UNL1        0.0351
      3 C          63.9452   89.0292   14.2229 C.ar    1  UNL1        0.0722
      4 CL         64.2176   89.8394   12.9902 Cl      1  UNL1       -0.0809
      5 C          63.5196   89.7109   15.4895 C.ar    1  UNL1        0.0577
      6 C          63.2473   88.9008   16.7222 C.ar    1  UNL1        0.0462
      7 C          63.4006   87.4091   16.6883 C.ar    1  UNL1        0.1602
      8 F          63.1283   86.5989   17.9211 F       1  UNL1       -0.2027
      9 O          65.4280   85.3926   15.0310 O.2     1  UNL1       -0.1498
     10 S          63.9795   85.2356   15.3879 S.O2    1  UNL1        0.0772
     11 O          62.5311   85.0786   15.7448 O.2     1  UNL1       -0.1498
     12 N          64.1329   83.7439   15.3541 N.pl3   1  UNL1       -0.1936
     13 H          64.7121   83.2936   16.0105 H       1  UNL1        0.1758
     14 C          63.4037   82.9382   14.3200 C.ar    1  UNL1        0.1786
     15 N          62.4293   81.8305   14.5912 N.ar    1  UNL1       -0.2214
     16 C          61.9443   81.3065   13.2720 C.ar    1  UNL1        0.1079
     17 C          62.6190   82.0904   12.1855 C.ar    1  UNL1        0.0588
     18 S          63.5210   83.0989   12.8333 S.2     1  UNL1       -0.0497
     19 N          63.3663   91.2027   15.5233 N.pl3   1  UNL1       -0.3319
     20 H          62.5959   91.6285   15.0825 H       1  UNL1        0.1468
     21 C          64.3869   92.0457   16.2288 C.3     1  UNL1        0.0871
     22 C          65.7553   92.2173   15.6388 C.3     1  UNL1        0.0219
     23 C          66.9416   92.4038   16.5377 C.3     1  UNL1        0.0019
     24 C          68.3099   92.5754   15.9477 C.3     1  UNL1        0.0025
     25 C          68.4920   92.5604   14.4589 C.3     1  UNL1        0.0292
     26 C          67.3058   92.3739   13.5600 C.3     1  UNL1        0.1106
     27 O          67.4879   92.3589   12.0712 O.3     1  UNL1       -0.3845
     28 C          65.9374   92.2023   14.1500 C.3     1  UNL1        0.0309
     29 H          68.4264   92.4818   11.8590 H       1  UNL1        0.2103
@<TRIPOS>BOND
     1     9    10    2
     2    10    11    2
     3    10    12    1
     4    12    14    1
     5    14    15   ar
     6    15    16   ar
     7    16    17   ar
     8    17    18   ar
     9    10     1    1
    10     1     2   ar
    11     2     3   ar
    12     3     4    1
    13     3     5   ar
    14     5    19    1
    15    19    21    1
    16    22    21    1
    17    22    23    1
    18    23    24    1
    19    24    25    1
    20    25    26    1
    21    26    27    1
    22    26    28    1
    23     5     6   ar
    24     6     7   ar
    25     7     8    1
    26    18    14   ar
    27     7     1   ar
    28    28    22    1
    29    12    13    1
    30    19    20    1
    31    27    29    1
@<TRIPOS>MOLECULE
*****
 29 31 0 0 0
SMALL
GASTEIGER

@<TRIPOS>ATOM
      1 C          62.7959   89.8981   11.8641 C.ar    1  UNL1        0.1534
      2 C          63.4348   89.7904   13.2169 C.ar    1  UNL1        0.0351
      3 C          64.5364   90.7323   13.6032 C.ar    1  UNL1        0.0722
      4 CL         65.1754   90.6246   14.9561 Cl      1  UNL1       -0.0809
      5 C          64.9991   91.7819   12.6366 C.ar    1  UNL1        0.0577
      6 C          64.3602   91.8896   11.2838 C.ar    1  UNL1        0.0462
      7 C          63.2586   90.9477   10.8976 C.ar    1  UNL1        0.1602
      8 F          62.6196   91.0553    9.5447 F       1  UNL1       -0.2027
      9 O          60.7453   89.7000   12.3700 O.2     1  UNL1       -0.1498
     10 S          61.6942   88.9561   11.4778 S.O2    1  UNL1        0.0772
     11 O          62.6431   88.2122   10.5855 O.2     1  UNL1       -0.1498
     12 N          60.5926   88.0143   11.0915 N.pl3   1  UNL1       -0.1936
     13 H          60.1867   87.4271   11.7695 H       1  UNL1        0.1758
     14 C          60.1094   87.9670    9.6722 C.ar    1  UNL1        0.1786
     15 N          59.8698   89.1507    8.7826 N.ar    1  UNL1       -0.2214
     16 C          59.3933   88.6430    7.4539 C.ar    1  UNL1        0.1079
     17 C          59.3384   87.1456    7.5225 C.ar    1  UNL1        0.0588
     18 S          59.7810   86.7278    8.8935 S.2     1  UNL1       -0.0497
     19 N          66.1008   92.7238   13.0230 N.pl3   1  UNL1       -0.3319
     20 H          66.7883   92.4392   13.6676 H       1  UNL1        0.1468
     21 C          66.1549   94.0992   12.4271 C.3     1  UNL1        0.0871
     22 C          66.6871   94.2945   11.0383 C.3     1  UNL1        0.0219
     23 C          66.4884   95.6051   10.3363 C.3     1  UNL1        0.0019
     24 C          67.0206   95.8004    8.9476 C.3     1  UNL1        0.0025
     25 C          67.7516   94.6850    8.2608 C.3     1  UNL1        0.0292
     26 C          67.9503   93.3744    8.9628 C.3     1  UNL1        0.1106
     27 O          68.6813   92.2591    8.2760 O.3     1  UNL1       -0.3845
     28 C          67.4181   93.1792   10.3515 C.3     1  UNL1        0.0309
     29 H          68.9563   92.5487    7.3921 H       1  UNL1        0.2103
@<TRIPOS>BOND
     1     9    10    2
     2    10    11    2
     3    10    12    1
     4    12    14    1
     5    14    15   ar
     6    15    16   ar
     7    16    17   ar
     8    17    18   ar
     9    10     1    1
    10     1     2   ar
    11     2     3   ar
    12     3     4    1
    13     3     5   ar
    14     5    19    1
    15    19    21    1
    16    22    21    1
    17    22    23    1
    18    23    24    1
    19    24    25    1
    20    25    26    1
    21    26    27    1
    22    26    28    1
    23     5     6   ar
    24     6     7   ar
    25     7     8    1
    26    18    14   ar
    27     7     1   ar
    28    28    22    1
    29    12    13    1
    30    19    20    1
    31    27    29    1
@<TRIPOS>MOLECULE
*****
 29 31 0 0 0
SMALL
GASTEIGER

@<TRIPOS>ATOM
      1 C          63.6824   85.8270   14.0986 C.ar    1  UNL1        0.1534
      2 C          63.1494   86.2919   12.7758 C.ar    1  UNL1        0.0351
      3 C          63.2143   87.7451   12.4100 C.ar    1  UNL1        0.0722
      4 CL         62.6813   88.2101   11.0872 Cl      1  UNL1       -0.0809
      5 C          63.8121   88.7335   13.3670 C.ar    1  UNL1        0.0577
      6 C          64.3450   88.2686   14.6898 C.ar    1  UNL1        0.0462
      7 C          64.2802   86.8153   15.0556 C.ar    1  UNL1        0.1602
      8 F          64.8131   86.3503   16.3784 F       1  UNL1       -0.2027
      9 O          62.1607   84.5207   14.7900 O.2     1  UNL1       -0.1498
     10 S          63.6175   84.3737   14.4644 S.O2    1  UNL1        0.0772
     11 O          65.0743   84.2267   14.1389 O.2     1  UNL1       -0.1498
     12 N          63.5526   82.9205   14.8303 N.pl3   1  UNL1       -0.1936
     13 H          63.7423   82.6364   15.7536 H       1  UNL1        0.1758
     14 C          63.1989   81.9000   13.7893 C.ar    1  UNL1        0.1786
     15 N          62.8412   80.4661   14.0459 N.ar    1  UNL1       -0.2214
     16 C          62.5619   79.8143   12.7241 C.ar    1  UNL1        0.1079
     17 C          62.7470   80.8454   11.6505 C.ar    1  UNL1        0.0588
     18 S          63.1406   82.1346   12.3088 S.2     1  UNL1       -0.0497
     19 N          63.8769   90.1868   13.0012 N.pl3   1  UNL1       -0.3319
     20 H          63.8031   90.4609   12.0585 H       1  UNL1        0.1468
     21 C          64.0542   91.2225   14.0716 C.3     1  UNL1        0.0871
     22 C          65.4317   91.6732   14.4583 C.3     1  UNL1        0.0219
     23 C          65.6644   92.3104   15.7961 C.3     1  UNL1        0.0019
     24 C          67.0418   92.7611   16.1828 C.3     1  UNL1        0.0025
     25 C          68.1866   92.5746   15.2316 C.3     1  UNL1        0.0292
     26 C          67.9539   91.9373   13.8938 C.3     1  UNL1        0.1106
     27 O          69.0987   91.7508   12.9426 O.3     1  UNL1       -0.3845
     28 C          66.5765   91.4866   13.5072 C.3     1  UNL1        0.0309
     29 H          69.9122   92.0936   13.3446 H       1  UNL1        0.2103
@<TRIPOS>BOND
     1     9    10    2
     2    10    11    2
     3    10    12    1
     4    12    14    1
     5    14    15   ar
     6    15    16   ar
     7    16    17   ar
     8    17    18   ar
     9    10     1    1
    10     1     2   ar
    11     2     3   ar
    12     3     4    1
    13     3     5   ar
    14     5    19    1
    15    19    21    1
    16    22    21    1
    17    22    23    1
    18    23    24    1
    19    24    25    1
    20    25    26    1
    21    26    27    1
    22    26    28    1
    23     5     6   ar
    24     6     7   ar
    25     7     8    1
    26    18    14   ar
    27     7     1   ar
    28    28    22    1
    29    12    13    1
    30    19    20    1
    31    27    29    1
@<TRIPOS>MOLECULE
*****
 29 31 0 0 0
SMALL
GASTEIGER

@<TRIPOS>ATOM
      1 C          63.4198   85.6625   15.2198 C.ar    1  UNL1        0.1534
      2 C          63.1907   86.4749   16.4597 C.ar    1  UNL1        0.0351
      3 C          63.3953   87.9606   16.4313 C.ar    1  UNL1        0.0722
      4 CL         63.1662   88.7731   17.6713 Cl      1  UNL1       -0.0809
      5 C          63.8291   88.6338   15.1630 C.ar    1  UNL1        0.0577
      6 C          64.0582   87.8214   13.9231 C.ar    1  UNL1        0.0462
      7 C          63.8535   86.3358   13.9515 C.ar    1  UNL1        0.1602
      8 F          64.0827   85.5233   12.7115 F       1  UNL1       -0.2027
      9 O          64.6987   83.9741   15.3347 O.2     1  UNL1       -0.1498
     10 S          63.2151   84.1768   15.2481 S.O2    1  UNL1        0.0772
     11 O          61.7314   84.3795   15.1615 O.2     1  UNL1       -0.1498
     12 N          63.0104   82.6911   15.2764 N.pl3   1  UNL1       -0.1936
     13 H          62.9204   82.2229   16.1378 H       1  UNL1        0.1758
     14 C          62.9431   81.9186   13.9923 C.ar    1  UNL1        0.1786
     15 N          63.3743   82.4119   12.6430 N.ar    1  UNL1       -0.2214
     16 C          63.1304   81.3154   11.6489 C.ar    1  UNL1        0.1079
     17 C          62.5483   80.1444   12.3839 C.ar    1  UNL1        0.0588
     18 S          62.4325   80.5173   13.8323 S.2     1  UNL1       -0.0497
     19 N          64.0338   90.1196   15.1347 N.pl3   1  UNL1       -0.3319
     20 H          63.5575   90.6944   15.7765 H       1  UNL1        0.1468
     21 C          64.9643   90.7294   14.1286 C.3     1  UNL1        0.0871
     22 C          66.1707   91.4929   14.5888 C.3     1  UNL1        0.0219
     23 C          66.0874   92.3635   15.8075 C.3     1  UNL1        0.0019
     24 C          67.2937   93.1269   16.2677 C.3     1  UNL1        0.0025
     25 C          68.5834   93.0198   15.5092 C.3     1  UNL1        0.0292
     26 C          68.6667   92.1492   14.2906 C.3     1  UNL1        0.1106
     27 O          69.9564   92.0421   13.5321 O.3     1  UNL1       -0.3845
     28 C          67.4604   91.3858   13.8304 C.3     1  UNL1        0.0309
     29 H          70.6297   92.5942   13.9596 H       1  UNL1        0.2103
@<TRIPOS>BOND
     1     9    10    2
     2    10    11    2
     3    10    12    1
     4    12    14    1
     5    14    15   ar
     6    15    16   ar
     7    16    17   ar
     8    17    18   ar
     9    10     1    1
    10     1     2   ar
    11     2     3   ar
    12     3     4    1
    13     3     5   ar
    14     5    19    1
    15    19    21    1
    16    22    21    1
    17    22    23    1
    18    23    24    1
    19    24    25    1
    20    25    26    1
    21    26    27    1
    22    26    28    1
    23     5     6   ar
    24     6     7   ar
    25     7     8    1
    26    18    14   ar
    27     7     1   ar
    28    28    22    1
    29    12    13    1
    30    19    20    1
    31    27    29    1
@<TRIPOS>MOLECULE
*****
 29 31 0 0 0
SMALL
GASTEIGER

@<TRIPOS>ATOM
      1 C          62.7129   87.0591   11.9323 C.ar    1  UNL1        0.1534
      2 C          62.1487   88.1821   11.1134 C.ar    1  UNL1        0.0351
      3 C          62.4532   89.6043   11.4803 C.ar    1  UNL1        0.0722
      4 CL         61.8890   90.7273   10.6614 Cl      1  UNL1       -0.0809
      5 C          63.3217   89.9035   12.6661 C.ar    1  UNL1        0.0577
      6 C          63.8859   88.7805   13.4850 C.ar    1  UNL1        0.0462
      7 C          63.5814   87.3583   13.1181 C.ar    1  UNL1        0.1602
      8 F          64.1456   86.2352   13.9370 F       1  UNL1       -0.2027
      9 O          62.7603   85.9300   10.1372 O.2     1  UNL1       -0.1498
     10 S          62.4084   85.6368   11.5655 S.O2    1  UNL1        0.0772
     11 O          62.0565   85.3437   12.9938 O.2     1  UNL1       -0.1498
     12 N          62.1040   84.2146   11.1986 N.pl3   1  UNL1       -0.1936
     13 H          61.4481   84.0184   10.4911 H       1  UNL1        0.1758
     14 C          62.7990   83.0914   11.9096 C.ar    1  UNL1        0.1786
     15 N          62.1345   81.9144   12.5599 N.ar    1  UNL1       -0.2214
     16 C          63.2054   81.0436   13.1473 C.ar    1  UNL1        0.1079
     17 C          64.5318   81.6825   12.8599 C.ar    1  UNL1        0.0588
     18 S          64.2806   82.9482   12.0949 S.2     1  UNL1       -0.0497
     19 N          63.6262   91.3258   13.0330 N.pl3   1  UNL1       -0.3319
     20 H          62.9725   91.8521   13.5477 H       1  UNL1        0.1468
     21 C          64.9265   91.9461   12.6156 C.3     1  UNL1        0.0871
     22 C          66.0319   92.1153   13.6153 C.3     1  UNL1        0.0219
     23 C          65.7065   92.3657   15.0580 C.3     1  UNL1        0.0019
     24 C          66.8120   92.5349   16.0577 C.3     1  UNL1        0.0025
     25 C          68.2427   92.4536   15.6147 C.3     1  UNL1        0.0292
     26 C          68.5681   92.2031   14.1720 C.3     1  UNL1        0.1106
     27 O          69.9989   92.1218   13.7290 O.3     1  UNL1       -0.3845
     28 C          67.4627   92.0340   13.1723 C.3     1  UNL1        0.0309
     29 H          70.5819   92.2520   14.4933 H       1  UNL1        0.2103
@<TRIPOS>BOND
     1     9    10    2
     2    10    11    2
     3    10    12    1
     4    12    14    1
     5    14    15   ar
     6    15    16   ar
     7    16    17   ar
     8    17    18   ar
     9    10     1    1
    10     1     2   ar
    11     2     3   ar
    12     3     4    1
    13     3     5   ar
    14     5    19    1
    15    19    21    1
    16    22    21    1
    17    22    23    1
    18    23    24    1
    19    24    25    1
    20    25    26    1
    21    26    27    1
    22    26    28    1
    23     5     6   ar
    24     6     7   ar
    25     7     8    1
    26    18    14   ar
    27     7     1   ar
    28    28    22    1
    29    12    13    1
    30    19    20    1
    31    27    29    1
@<TRIPOS>MOLECULE
*****
 29 31 0 0 0
SMALL
GASTEIGER

@<TRIPOS>ATOM
      1 C          63.2854   85.7708   13.2210 C.ar    1  UNL1        0.1534
      2 C          62.5267   85.8201   11.9280 C.ar    1  UNL1        0.0351
      3 C          62.3636   87.1232   11.2034 C.ar    1  UNL1        0.0722
      4 CL         61.6049   87.1726    9.9103 Cl      1  UNL1       -0.0809
      5 C          62.9591   88.3771   11.7718 C.ar    1  UNL1        0.0577
      6 C          63.7178   88.3278   13.0648 C.ar    1  UNL1        0.0462
      7 C          63.8809   87.0247   13.7894 C.ar    1  UNL1        0.1602
      8 F          64.6396   86.9753   15.0825 F       1  UNL1       -0.2027
      9 O          64.6366   84.1407   13.0902 O.2     1  UNL1       -0.1498
     10 S          63.4486   84.4676   13.9457 S.O2    1  UNL1        0.0772
     11 O          62.2606   84.7944   14.8011 O.2     1  UNL1       -0.1498
     12 N          63.6118   83.1644   14.6703 N.pl3   1  UNL1       -0.1936
     13 H          64.1938   83.1112   15.4625 H       1  UNL1        0.1758
     14 C          62.8881   81.9422   14.1878 C.ar    1  UNL1        0.1786
     15 N          61.4754   81.5646   14.5221 N.ar    1  UNL1       -0.2214
     16 C          61.1643   80.2722   13.8273 C.ar    1  UNL1        0.1079
     17 C          62.3847   79.8509   13.0636 C.ar    1  UNL1        0.0588
     18 S          63.4501   80.8832   13.2865 S.2     1  UNL1       -0.0497
     19 N          62.7960   89.6803   11.0471 N.pl3   1  UNL1       -0.3319
     20 H          62.6120   89.6861   10.0800 H       1  UNL1        0.1468
     21 C          62.9131   90.9747   11.7960 C.3     1  UNL1        0.0871
     22 C          64.2556   91.6202   11.9727 C.3     1  UNL1        0.0219
     23 C          64.9338   91.5863   13.3102 C.3     1  UNL1        0.0019
     24 C          66.2762   92.2318   13.4868 C.3     1  UNL1        0.0025
     25 C          66.9404   92.9111   12.3261 C.3     1  UNL1        0.0292
     26 C          66.2621   92.9450   10.9886 C.3     1  UNL1        0.1106
     27 O          66.9263   93.6243    9.8278 O.3     1  UNL1       -0.3845
     28 C          64.9197   92.2995   10.8120 C.3     1  UNL1        0.0309
     29 H          67.7808   93.9860   10.1106 H       1  UNL1        0.2103
@<TRIPOS>BOND
     1     9    10    2
     2    10    11    2
     3    10    12    1
     4    12    14    1
     5    14    15   ar
     6    15    16   ar
     7    16    17   ar
     8    17    18   ar
     9    10     1    1
    10     1     2   ar
    11     2     3   ar
    12     3     4    1
    13     3     5   ar
    14     5    19    1
    15    19    21    1
    16    22    21    1
    17    22    23    1
    18    23    24    1
    19    24    25    1
    20    25    26    1
    21    26    27    1
    22    26    28    1
    23     5     6   ar
    24     6     7   ar
    25     7     8    1
    26    18    14   ar
    27     7     1   ar
    28    28    22    1
    29    12    13    1
    30    19    20    1
    31    27    29    1
@<TRIPOS>MOLECULE
*****
 29 31 0 0 0
SMALL
GASTEIGER

@<TRIPOS>ATOM
      1 C          63.4266   85.6608   15.2959 C.ar    1  UNL1        0.1534
      2 C          63.1937   86.4893   16.5244 C.ar    1  UNL1        0.0351
      3 C          63.3894   87.9757   16.4747 C.ar    1  UNL1        0.0722
      4 CL         63.1566   88.8043   17.7032 Cl      1  UNL1       -0.0809
      5 C          63.8179   88.6334   15.1965 C.ar    1  UNL1        0.0577
      6 C          64.0508   87.8049   13.9681 C.ar    1  UNL1        0.0462
      7 C          63.8551   86.3185   14.0177 C.ar    1  UNL1        0.1602
      8 F          64.0879   85.4899   12.7892 F       1  UNL1       -0.2027
      9 O          64.7180   83.9785   15.3403 O.2     1  UNL1       -0.1498
     10 S          63.2309   84.1744   15.3455 S.O2    1  UNL1        0.0772
     11 O          61.7438   84.3703   15.3508 O.2     1  UNL1       -0.1498
     12 N          63.0353   82.6880   15.3952 N.pl3   1  UNL1       -0.1936
     13 H          62.9889   82.2264   16.2635 H       1  UNL1        0.1758
     14 C          62.9103   81.9050   14.1218 C.ar    1  UNL1        0.1786
     15 N          62.7087   80.4226   14.0145 N.ar    1  UNL1       -0.2214
     16 C          62.6389   80.0684   12.5586 C.ar    1  UNL1        0.1079
     17 C          62.7974   81.3321   11.7660 C.ar    1  UNL1        0.0588
     18 S          62.9651   82.4672   12.7322 S.2     1  UNL1       -0.0497
     19 N          64.0136   90.1198   15.1469 N.pl3   1  UNL1       -0.3319
     20 H          63.3212   90.7198   15.5072 H       1  UNL1        0.1468
     21 C          65.2643   90.6921   14.5484 C.3     1  UNL1        0.0871
     22 C          65.2103   91.3865   13.2199 C.3     1  UNL1        0.0219
     23 C          64.1077   91.0713   12.2531 C.3     1  UNL1        0.0019
     24 C          64.0537   91.7658   10.9246 C.3     1  UNL1        0.0025
     25 C          65.1025   92.7754   10.5630 C.3     1  UNL1        0.0292
     26 C          66.2052   93.0906   11.5298 C.3     1  UNL1        0.1106
     27 O          67.2539   94.1002   11.1681 O.3     1  UNL1       -0.3845
     28 C          66.2591   92.3961   12.8582 C.3     1  UNL1        0.0309
     29 H          67.0728   94.4513   10.2822 H       1  UNL1        0.2103
@<TRIPOS>BOND
     1     9    10    2
     2    10    11    2
     3    10    12    1
     4    12    14    1
     5    14    15   ar
     6    15    16   ar
     7    16    17   ar
     8    17    18   ar
     9    10     1    1
    10     1     2   ar
    11     2     3   ar
    12     3     4    1
    13     3     5   ar
    14     5    19    1
    15    19    21    1
    16    22    21    1
    17    22    23    1
    18    23    24    1
    19    24    25    1
    20    25    26    1
    21    26    27    1
    22    26    28    1
    23     5     6   ar
    24     6     7   ar
    25     7     8    1
    26    18    14   ar
    27     7     1   ar
    28    28    22    1
    29    12    13    1
    30    19    20    1
    31    27    29    1
