@<TRIPOS>MOLECULE
*****
 37 40 0 0 0
SMALL
GASTEIGER

@<TRIPOS>ATOM
      1 C          63.3941   89.6708   12.4320 C.ar    1  UNL1        0.2019
      2 N          62.4449   89.9250   11.2987 N.ar    1  UNL1       -0.2135
      3 C          61.9638   88.5983   10.7904 C.ar    1  UNL1        0.1001
      4 C          61.0163   88.2296    9.6876 C.ar    1  UNL1        0.0252
      5 C          60.7208   86.7867    9.4038 C.ar    1  UNL1        0.0547
      6 C          61.3727   85.7124   10.2230 C.ar    1  UNL1        0.0061
      7 C          62.3201   86.0811   11.3258 C.ar    1  UNL1        0.0189
      8 C          62.6157   87.5240   11.6096 C.ar    1  UNL1        0.0802
      9 N          63.4997   88.1869   12.6241 N.ar    1  UNL1       -0.2953
     10 C          59.7733   86.4179    8.3009 C.2     1  UNL1        0.2428
     11 N          60.1663   85.3822    7.2896 N.am    1  UNL1       -0.3253
     12 O          58.4329   87.0849    8.2094 O.2     1  UNL1       -0.2704
     13 H          61.0460   84.9444    7.3497 H       1  UNL1        0.1453
     14 H          59.5444   85.1402    6.5657 H       1  UNL1        0.1453
     15 N          64.1118   90.7167   13.2326 N.pl3   1  UNL1       -0.2839
     16 H          64.1433   90.6496   14.2143 H       1  UNL1        0.1550
     17 C          66.1208   94.1612   11.1471 C.ar    1  UNL1        0.1058
     18 C          65.2483   93.2201   10.3705 C.ar    1  UNL1        0.0196
     19 C          64.5786   92.0719   11.0656 C.ar    1  UNL1        0.0160
     20 C          64.7814   91.8649   12.5374 C.ar    1  UNL1        0.0505
     21 C          65.6539   92.8060   13.3140 C.ar    1  UNL1        0.0160
     22 C          66.3236   93.9542   12.6188 C.ar    1  UNL1        0.0196
     23 C          67.4600   96.4576    9.7567 C.3     1  UNL1        0.1816
     24 S          66.7904   95.3094   10.4519 S.O2    1  UNL1        0.0105
     25 O          65.7308   96.2385   10.9657 O.2     1  UNL1       -0.1686
     26 O          67.8500   94.3804    9.9380 O.2     1  UNL1       -0.1686
     27 C          64.3414   87.4884   13.6505 C.3     1  UNL1        0.1354
     28 C          63.8081   87.2698   15.0353 C.ar    1  UNL1        0.0044
     29 C          63.5280   88.4444   15.9252 C.ar    1  UNL1       -0.0024
     30 C          62.9946   88.2259   17.3101 C.ar    1  UNL1       -0.0003
     31 C          62.7412   86.8327   17.8050 C.ar    1  UNL1       -0.0001
     32 C          63.0213   85.6581   16.9150 C.ar    1  UNL1        0.0036
     33 C          63.5547   85.8767   15.5302 C.ar    1  UNL1        0.0693
     34 C          63.8347   84.7020   14.6404 C.3     1  UNL1        0.4183
     35 F          64.1148   83.5275   13.7506 F       1  UNL1       -0.1659
     36 F          62.3681   84.5685   14.3552 F       1  UNL1       -0.1659
     37 F          65.3013   84.8356   14.9255 F       1  UNL1       -0.1659
@<TRIPOS>BOND
     1    23    24    1
     2    24    25    2
     3    24    26    2
     4    24    17    1
     5    17    18   ar
     6    18    19   ar
     7    19    20   ar
     8    20    15    1
     9    15     1    1
    10     1     2   ar
    11     2     3   ar
    12     3     4   ar
    13     4     5   ar
    14     5    10    1
    15    10    11   am
    16    10    12    2
    17     5     6   ar
    18     6     7   ar
    19     7     8   ar
    20     8     9   ar
    21     9    27    1
    22    27    28    1
    23    28    29   ar
    24    29    30   ar
    25    30    31   ar
    26    31    32   ar
    27    32    33   ar
    28    33    34    1
    29    34    35    1
    30    34    36    1
    31    34    37    1
    32    20    21   ar
    33    21    22   ar
    34    22    17   ar
    35     9     1   ar
    36    33    28   ar
    37     8     3   ar
    38    15    16    1
    39    11    13    1
    40    11    14    1
@<TRIPOS>MOLECULE
*****
 37 40 0 0 0
SMALL
GASTEIGER

@<TRIPOS>ATOM
      1 C          63.6859   89.0917   13.5474 C.ar    1  UNL1        0.2019
      2 N          64.1515   88.0616   14.5333 N.ar    1  UNL1       -0.2135
      3 C          63.8834   86.7063   13.9492 C.ar    1  UNL1        0.1001
      4 C          64.1325   85.3218   14.4698 C.ar    1  UNL1        0.0252
      5 C          63.7503   84.1298   13.6434 C.ar    1  UNL1        0.0547
      6 C          63.1190   84.3222   12.2964 C.ar    1  UNL1        0.0061
      7 C          62.8698   85.7067   11.7758 C.ar    1  UNL1        0.0189
      8 C          63.2520   86.8987   12.6022 C.ar    1  UNL1        0.0802
      9 N          63.1300   88.3730   12.3539 N.ar    1  UNL1       -0.2953
     10 C          63.9995   82.7452   14.1640 C.2     1  UNL1        0.2428
     11 N          63.9303   81.5705   13.2338 N.am    1  UNL1       -0.3253
     12 O          64.3179   82.5354   15.6147 O.2     1  UNL1       -0.2704
     13 H          63.7213   81.7082   12.2817 H       1  UNL1        0.1453
     14 H          64.0938   80.6617   13.5755 H       1  UNL1        0.1453
     15 N          63.7627   90.5793   13.7240 N.pl3   1  UNL1       -0.2839
     16 H          63.2575   91.0159   14.4474 H       1  UNL1        0.1550
     17 C          66.3022   93.0466   10.9468 C.ar    1  UNL1        0.1058
     18 C          66.7830   92.7474   12.3358 C.ar    1  UNL1        0.0196
     19 C          65.9365   91.9250   13.2615 C.ar    1  UNL1        0.0160
     20 C          64.6092   91.4017   12.7982 C.ar    1  UNL1        0.0505
     21 C          64.1284   91.7009   11.4092 C.ar    1  UNL1        0.0160
     22 C          64.9750   92.5234   10.4835 C.ar    1  UNL1        0.0196
     23 C          67.9954   94.6915    9.0954 C.3     1  UNL1        0.1816
     24 S          67.1488   93.8691   10.0210 S.O2    1  UNL1        0.0105
     25 O          68.2397   92.8432   10.1072 O.2     1  UNL1       -0.1686
     26 O          66.0580   94.8950    9.9349 O.2     1  UNL1       -0.1686
     27 C          62.5532   89.0157   11.1274 C.3     1  UNL1        0.1354
     28 C          61.6992   88.2133   10.1912 C.ar    1  UNL1        0.0044
     29 C          62.3223   87.1596    9.3242 C.ar    1  UNL1       -0.0024
     30 C          61.4682   86.3571    8.3880 C.ar    1  UNL1       -0.0003
     31 C          59.9910   86.6082    8.3187 C.ar    1  UNL1       -0.0001
     32 C          59.3679   87.6618    9.1857 C.ar    1  UNL1        0.0036
     33 C          60.2220   88.4643   10.1219 C.ar    1  UNL1        0.0693
     34 C          59.5988   89.5179   10.9889 C.3     1  UNL1        0.4183
     35 F          58.9756   90.5714   11.8559 F       1  UNL1       -0.1659
     36 F          59.8976   90.5532    9.9454 F       1  UNL1       -0.1659
     37 F          59.3000   88.4826   12.0323 F       1  UNL1       -0.1659
@<TRIPOS>BOND
     1    23    24    1
     2    24    25    2
     3    24    26    2
     4    24    17    1
     5    17    18   ar
     6    18    19   ar
     7    19    20   ar
     8    20    15    1
     9    15     1    1
    10     1     2   ar
    11     2     3   ar
    12     3     4   ar
    13     4     5   ar
    14     5    10    1
    15    10    11   am
    16    10    12    2
    17     5     6   ar
    18     6     7   ar
    19     7     8   ar
    20     8     9   ar
    21     9    27    1
    22    27    28    1
    23    28    29   ar
    24    29    30   ar
    25    30    31   ar
    26    31    32   ar
    27    32    33   ar
    28    33    34    1
    29    34    35    1
    30    34    36    1
    31    34    37    1
    32    20    21   ar
    33    21    22   ar
    34    22    17   ar
    35     9     1   ar
    36    33    28   ar
    37     8     3   ar
    38    15    16    1
    39    11    13    1
    40    11    14    1
@<TRIPOS>MOLECULE
*****
 37 40 0 0 0
SMALL
GASTEIGER

@<TRIPOS>ATOM
      1 C          62.5054   89.9458   12.6391 C.ar    1  UNL1        0.2019
      2 N          61.4818   90.0399   11.5467 N.ar    1  UNL1       -0.2135
      3 C          61.4238   88.7126   10.8502 C.ar    1  UNL1        0.1001
      4 C          60.5991   88.2185    9.6988 C.ar    1  UNL1        0.0252
      5 C          60.7622   86.8101    9.2094 C.ar    1  UNL1        0.0547
      6 C          61.7499   85.8957    9.8714 C.ar    1  UNL1        0.0061
      7 C          62.5746   86.3897   11.0228 C.ar    1  UNL1        0.0189
      8 C          62.4115   87.7982   11.5122 C.ar    1  UNL1        0.0802
      9 N          63.0800   88.5604   12.6178 N.ar    1  UNL1       -0.2953
     10 C          59.9375   86.3159    8.0580 C.2     1  UNL1        0.2428
     11 N          60.5201   85.3342    7.0850 N.am    1  UNL1       -0.3253
     12 O          58.5302   86.8035    7.8795 O.2     1  UNL1       -0.2704
     13 H          61.4438   85.0142    7.2021 H       1  UNL1        0.1453
     14 H          59.9789   85.0099    6.3292 H       1  UNL1        0.1453
     15 N          62.8874   91.0442   13.5864 N.pl3   1  UNL1       -0.2839
     16 H          62.1899   91.5340   14.0792 H       1  UNL1        0.1550
     17 C          67.2216   92.1009   14.1763 C.ar    1  UNL1        0.1058
     18 C          66.6097   92.1801   12.8090 C.ar    1  UNL1        0.0196
     19 C          65.1650   91.8278   12.6124 C.ar    1  UNL1        0.0160
     20 C          64.3321   91.3964   13.7831 C.ar    1  UNL1        0.0505
     21 C          64.9440   91.3173   15.1503 C.ar    1  UNL1        0.0160
     22 C          66.3888   91.6695   15.3469 C.ar    1  UNL1        0.0196
     23 C          70.1112   92.8053   14.5694 C.3     1  UNL1        0.1816
     24 S          68.6664   92.4531   14.3728 S.O2    1  UNL1        0.0105
     25 O          68.9838   91.9114   13.0106 O.2     1  UNL1       -0.1686
     26 O          68.3491   92.9948   15.7351 O.2     1  UNL1       -0.1686
     27 C          64.1374   88.0301   13.5401 C.3     1  UNL1        0.1354
     28 C          63.7620   87.5332   14.9046 C.ar    1  UNL1        0.0044
     29 C          63.3167   88.5022   15.9595 C.ar    1  UNL1       -0.0024
     30 C          62.9413   88.0053   17.3241 C.ar    1  UNL1       -0.0003
     31 C          63.0112   86.5392   17.6338 C.ar    1  UNL1       -0.0001
     32 C          63.4565   85.5702   16.5790 C.ar    1  UNL1        0.0036
     33 C          63.8319   86.0672   15.2144 C.ar    1  UNL1        0.0693
     34 C          64.2772   85.0981   14.1596 C.3     1  UNL1        0.4183
     35 F          64.7223   84.1290   13.1048 F       1  UNL1       -0.1659
     36 F          65.7048   85.3086   14.5689 F       1  UNL1       -0.1659
     37 F          62.8495   84.8875   13.7504 F       1  UNL1       -0.1659
@<TRIPOS>BOND
     1    23    24    1
     2    24    25    2
     3    24    26    2
     4    24    17    1
     5    17    18   ar
     6    18    19   ar
     7    19    20   ar
     8    20    15    1
     9    15     1    1
    10     1     2   ar
    11     2     3   ar
    12     3     4   ar
    13     4     5   ar
    14     5    10    1
    15    10    11   am
    16    10    12    2
    17     5     6   ar
    18     6     7   ar
    19     7     8   ar
    20     8     9   ar
    21     9    27    1
    22    27    28    1
    23    28    29   ar
    24    29    30   ar
    25    30    31   ar
    26    31    32   ar
    27    32    33   ar
    28    33    34    1
    29    34    35    1
    30    34    36    1
    31    34    37    1
    32    20    21   ar
    33    21    22   ar
    34    22    17   ar
    35     9     1   ar
    36    33    28   ar
    37     8     3   ar
    38    15    16    1
    39    11    13    1
    40    11    14    1
@<TRIPOS>MOLECULE
*****
 37 40 0 0 0
SMALL
GASTEIGER

@<TRIPOS>ATOM
      1 C          62.1324   88.3769   11.4652 C.ar    1  UNL1        0.2019
      2 N          61.9012   89.5792   10.5986 N.ar    1  UNL1       -0.2135
      3 C          61.0218   89.1650    9.4562 C.ar    1  UNL1        0.1001
      4 C          60.4651   89.9273    8.2905 C.ar    1  UNL1        0.0252
      5 C          59.5960   89.2314    7.2854 C.ar    1  UNL1        0.0547
      6 C          59.2836   87.7731    7.4460 C.ar    1  UNL1        0.0061
      7 C          59.8403   87.0107    8.6117 C.ar    1  UNL1        0.0189
      8 C          60.7094   87.7067    9.6168 C.ar    1  UNL1        0.0802
      9 N          61.3958   87.2196   10.8584 N.ar    1  UNL1       -0.2953
     10 C          59.0392   89.9937    6.1197 C.2     1  UNL1        0.2428
     11 N          57.5557   90.1569    5.9699 N.am    1  UNL1       -0.3253
     12 O          59.9660   90.5929    5.1038 O.2     1  UNL1       -0.2704
     13 H          56.9474   89.7636    6.6367 H       1  UNL1        0.1453
     14 H          57.1902   90.6572    5.2048 H       1  UNL1        0.1453
     15 N          62.9556   88.3385   12.7186 N.pl3   1  UNL1       -0.2839
     16 H          62.9286   87.5454   13.3012 H       1  UNL1        0.1550
     17 C          65.5490   91.8487   13.8154 C.ar    1  UNL1        0.1058
     18 C          64.7827   91.8563   12.5259 C.ar    1  UNL1        0.0196
     19 C          63.9183   90.6862   12.1602 C.ar    1  UNL1        0.0160
     20 C          63.8201   89.5086   13.0842 C.ar    1  UNL1        0.0505
     21 C          64.5863   89.5010   14.3737 C.ar    1  UNL1        0.0160
     22 C          65.4508   90.6712   14.7393 C.ar    1  UNL1        0.0196
     23 C          67.2779   94.1889   14.5466 C.3     1  UNL1        0.1816
     24 S          66.4135   93.0189   14.1809 S.O2    1  UNL1        0.0105
     25 O          65.8629   92.9897   15.5759 O.2     1  UNL1       -0.1686
     26 O          66.9640   93.0480   12.7860 O.2     1  UNL1       -0.1686
     27 C          61.3531   85.8208   11.3984 C.3     1  UNL1        0.1354
     28 C          62.4646   84.8627   11.0879 C.ar    1  UNL1        0.0044
     29 C          62.9000   84.6539    9.6677 C.ar    1  UNL1       -0.0024
     30 C          64.0115   83.6957    9.3570 C.ar    1  UNL1       -0.0003
     31 C          64.6876   82.9463   10.4667 C.ar    1  UNL1       -0.0001
     32 C          64.2523   83.1552   11.8868 C.ar    1  UNL1        0.0036
     33 C          63.1408   84.1133   12.1974 C.ar    1  UNL1        0.0693
     34 C          62.7055   84.3221   13.6176 C.3     1  UNL1        0.4183
     35 F          62.2702   84.5307   15.0378 F       1  UNL1       -0.1659
     36 F          63.5178   85.5815   13.6815 F       1  UNL1       -0.1659
     37 F          61.8932   83.0627   13.5538 F       1  UNL1       -0.1659
@<TRIPOS>BOND
     1    23    24    1
     2    24    25    2
     3    24    26    2
     4    24    17    1
     5    17    18   ar
     6    18    19   ar
     7    19    20   ar
     8    20    15    1
     9    15     1    1
    10     1     2   ar
    11     2     3   ar
    12     3     4   ar
    13     4     5   ar
    14     5    10    1
    15    10    11   am
    16    10    12    2
    17     5     6   ar
    18     6     7   ar
    19     7     8   ar
    20     8     9   ar
    21     9    27    1
    22    27    28    1
    23    28    29   ar
    24    29    30   ar
    25    30    31   ar
    26    31    32   ar
    27    32    33   ar
    28    33    34    1
    29    34    35    1
    30    34    36    1
    31    34    37    1
    32    20    21   ar
    33    21    22   ar
    34    22    17   ar
    35     9     1   ar
    36    33    28   ar
    37     8     3   ar
    38    15    16    1
    39    11    13    1
    40    11    14    1
@<TRIPOS>MOLECULE
*****
 37 40 0 0 0
SMALL
GASTEIGER

@<TRIPOS>ATOM
      1 C          63.3156   88.7934   12.6561 C.ar    1  UNL1        0.2019
      2 N          63.5489   87.9586   13.8803 N.ar    1  UNL1       -0.2135
      3 C          63.3133   86.5232   13.5143 C.ar    1  UNL1        0.1001
      4 C          63.3949   85.2570   14.3144 C.ar    1  UNL1        0.0252
      5 C          63.0976   83.9385   13.6641 C.ar    1  UNL1        0.0547
      6 C          62.7187   83.8861   12.2137 C.ar    1  UNL1        0.0061
      7 C          62.6371   85.1522   11.4136 C.ar    1  UNL1        0.0189
      8 C          62.9344   86.4708   12.0639 C.ar    1  UNL1        0.0802
      9 N          62.9358   87.8739   11.5335 N.ar    1  UNL1       -0.2953
     10 C          63.1791   82.6722   14.4642 C.2     1  UNL1        0.2428
     11 N          61.9972   81.7512   14.5331 N.am    1  UNL1       -0.3253
     12 O          64.4426   82.3271   15.1953 O.2     1  UNL1       -0.2704
     13 H          61.1680   81.9777   14.0532 H       1  UNL1        0.1453
     14 H          62.0507   80.9201   15.0582 H       1  UNL1        0.1453
     15 N          63.4401   90.2858   12.5696 N.pl3   1  UNL1       -0.2839
     16 H          62.7752   90.8067   12.0639 H       1  UNL1        0.1550
     17 C          66.8528   92.3814   14.6219 C.ar    1  UNL1        0.1058
     18 C          65.7880   91.7078   15.4358 C.ar    1  UNL1        0.0196
     19 C          64.6505   91.0093   14.7518 C.ar    1  UNL1        0.0160
     20 C          64.5777   90.9843   13.2537 C.ar    1  UNL1        0.0505
     21 C          65.6425   91.6579   12.4398 C.ar    1  UNL1        0.0160
     22 C          66.7801   92.3564   13.1239 C.ar    1  UNL1        0.0196
     23 C          69.1279   93.7785   15.9902 C.3     1  UNL1        0.1816
     24 S          67.9904   93.0800   15.3060 S.O2    1  UNL1        0.0105
     25 O          67.0851   93.4361   16.4477 O.2     1  UNL1       -0.1686
     26 O          68.8957   92.7238   14.1643 O.2     1  UNL1       -0.1686
     27 C          62.6139   88.2851   10.1274 C.3     1  UNL1        0.1354
     28 C          61.5110   87.5976    9.3786 C.ar    1  UNL1        0.0044
     29 C          61.8284   86.4622    8.4511 C.ar    1  UNL1       -0.0024
     30 C          60.7255   85.7746    7.7023 C.ar    1  UNL1       -0.0003
     31 C          59.3051   86.2224    7.8810 C.ar    1  UNL1       -0.0001
     32 C          58.9876   87.3577    8.8085 C.ar    1  UNL1        0.0036
     33 C          60.0906   88.0453    9.5573 C.ar    1  UNL1        0.0693
     34 C          59.7730   89.1806   10.4848 C.3     1  UNL1        0.4183
     35 F          59.4555   90.3159   11.4123 F       1  UNL1       -0.1659
     36 F          59.9436   90.1517    9.3544 F       1  UNL1       -0.1659
     37 F          59.6025   88.2095   11.6151 F       1  UNL1       -0.1659
@<TRIPOS>BOND
     1    23    24    1
     2    24    25    2
     3    24    26    2
     4    24    17    1
     5    17    18   ar
     6    18    19   ar
     7    19    20   ar
     8    20    15    1
     9    15     1    1
    10     1     2   ar
    11     2     3   ar
    12     3     4   ar
    13     4     5   ar
    14     5    10    1
    15    10    11   am
    16    10    12    2
    17     5     6   ar
    18     6     7   ar
    19     7     8   ar
    20     8     9   ar
    21     9    27    1
    22    27    28    1
    23    28    29   ar
    24    29    30   ar
    25    30    31   ar
    26    31    32   ar
    27    32    33   ar
    28    33    34    1
    29    34    35    1
    30    34    36    1
    31    34    37    1
    32    20    21   ar
    33    21    22   ar
    34    22    17   ar
    35     9     1   ar
    36    33    28   ar
    37     8     3   ar
    38    15    16    1
    39    11    13    1
    40    11    14    1
@<TRIPOS>MOLECULE
*****
 37 40 0 0 0
SMALL
GASTEIGER

@<TRIPOS>ATOM
      1 C          63.3890   88.9884   12.4756 C.ar    1  UNL1        0.2019
      2 N          62.6359   89.3167   11.2206 N.ar    1  UNL1       -0.2135
      3 C          62.0926   88.0369   10.6576 C.ar    1  UNL1        0.1001
      4 C          61.2718   87.7461    9.4363 C.ar    1  UNL1        0.0252
      5 C          60.8684   86.3360    9.1220 C.ar    1  UNL1        0.0547
      6 C          61.2857   85.2167   10.0292 C.ar    1  UNL1        0.0061
      7 C          62.1065   85.5074   11.2505 C.ar    1  UNL1        0.0189
      8 C          62.5099   86.9175   11.5648 C.ar    1  UNL1        0.0802
      9 N          63.3111   87.5056   12.6883 N.ar    1  UNL1       -0.2953
     10 C          60.0476   86.0452    7.9006 C.2     1  UNL1        0.2428
     11 N          58.7080   86.6968    7.7247 N.am    1  UNL1       -0.3253
     12 O          60.5664   85.1029    6.8553 O.2     1  UNL1       -0.2704
     13 H          58.3675   87.3153    8.4108 H       1  UNL1        0.1453
     14 H          58.1693   86.5059    6.9230 H       1  UNL1        0.1453
     15 N          64.0958   89.9704   13.3622 N.pl3   1  UNL1       -0.2839
     16 H          64.1779   89.7922   14.3269 H       1  UNL1        0.1550
     17 C          65.8409   93.7310   11.6124 C.ar    1  UNL1        0.1058
     18 C          66.1726   93.3349   13.0206 C.ar    1  UNL1        0.0196
     19 C          65.5909   92.0814   13.6039 C.ar    1  UNL1        0.0160
     20 C          64.6775   91.2239   12.7789 C.ar    1  UNL1        0.0505
     21 C          64.3458   91.6201   11.3707 C.ar    1  UNL1        0.0160
     22 C          64.9275   92.8737   10.7874 C.ar    1  UNL1        0.0196
     23 C          67.0044   96.2382   10.4458 C.3     1  UNL1        0.1816
     24 S          66.4227   94.9847   11.0291 S.O2    1  UNL1        0.0105
     25 O          66.6812   94.2644    9.7390 O.2     1  UNL1       -0.1686
     26 O          66.1641   95.7049   12.3192 O.2     1  UNL1       -0.1686
     27 C          63.9264   86.7444   13.8250 C.3     1  UNL1        0.1354
     28 C          63.8330   85.2479   13.8632 C.ar    1  UNL1        0.0044
     29 C          64.3846   84.4328   12.7313 C.ar    1  UNL1       -0.0024
     30 C          64.2912   82.9362   12.7695 C.ar    1  UNL1       -0.0003
     31 C          63.6461   82.2547   13.9397 C.ar    1  UNL1       -0.0001
     32 C          63.0945   83.0697   15.0716 C.ar    1  UNL1        0.0036
     33 C          63.1879   84.5663   15.0334 C.ar    1  UNL1        0.0693
     34 C          62.6362   85.3813   16.1654 C.3     1  UNL1        0.4183
     35 F          62.0846   86.1964   17.2974 F       1  UNL1       -0.1659
     36 F          61.2420   85.0973   15.6904 F       1  UNL1       -0.1659
     37 F          64.0304   85.6653   16.6404 F       1  UNL1       -0.1659
@<TRIPOS>BOND
     1    23    24    1
     2    24    25    2
     3    24    26    2
     4    24    17    1
     5    17    18   ar
     6    18    19   ar
     7    19    20   ar
     8    20    15    1
     9    15     1    1
    10     1     2   ar
    11     2     3   ar
    12     3     4   ar
    13     4     5   ar
    14     5    10    1
    15    10    11   am
    16    10    12    2
    17     5     6   ar
    18     6     7   ar
    19     7     8   ar
    20     8     9   ar
    21     9    27    1
    22    27    28    1
    23    28    29   ar
    24    29    30   ar
    25    30    31   ar
    26    31    32   ar
    27    32    33   ar
    28    33    34    1
    29    34    35    1
    30    34    36    1
    31    34    37    1
    32    20    21   ar
    33    21    22   ar
    34    22    17   ar
    35     9     1   ar
    36    33    28   ar
    37     8     3   ar
    38    15    16    1
    39    11    13    1
    40    11    14    1
@<TRIPOS>MOLECULE
*****
 37 40 0 0 0
SMALL
GASTEIGER

@<TRIPOS>ATOM
      1 C          62.7789   89.6926   12.1159 C.ar    1  UNL1        0.2019
      2 N          62.7490   91.0515   11.4815 N.ar    1  UNL1       -0.2135
      3 C          64.0250   91.7564   11.8352 C.ar    1  UNL1        0.1001
      4 C          64.5472   93.1197   11.4908 C.ar    1  UNL1        0.0252
      5 C          65.8880   93.5597   11.9994 C.ar    1  UNL1        0.0547
      6 C          66.7065   92.6364   12.8524 C.ar    1  UNL1        0.0061
      7 C          66.1842   91.2731   13.1968 C.ar    1  UNL1        0.0189
      8 C          64.8435   90.8331   12.6883 C.ar    1  UNL1        0.0802
      9 N          64.0733   89.5577   12.8617 N.ar    1  UNL1       -0.2953
     10 C          66.4103   94.9230   11.6549 C.2     1  UNL1        0.2428
     11 N          67.2430   95.1178   10.4225 N.am    1  UNL1       -0.3253
     12 O          66.1000   96.0914   12.5428 O.2     1  UNL1       -0.2704
     13 H          67.4467   94.3509    9.8398 H       1  UNL1        0.1453
     14 H          67.5858   96.0125   10.1964 H       1  UNL1        0.1453
     15 N          61.7033   88.6514   12.0212 N.pl3   1  UNL1       -0.2839
     16 H          61.0486   88.5523   12.7497 H       1  UNL1        0.1550
     17 C          61.4688   85.9809    8.4069 C.ar    1  UNL1        0.1058
     18 C          62.4017   85.6411    9.5312 C.ar    1  UNL1        0.0196
     19 C          62.4799   86.5312   10.7360 C.ar    1  UNL1        0.0160
     20 C          61.6251   87.7613   10.8164 C.ar    1  UNL1        0.0505
     21 C          60.6922   88.1011    9.6920 C.ar    1  UNL1        0.0160
     22 C          60.6141   87.2109    8.4872 C.ar    1  UNL1        0.0196
     23 C          61.3125   84.2005    5.9973 C.3     1  UNL1        0.1816
     24 S          61.3907   85.0907    7.2021 S.O2    1  UNL1        0.0105
     25 O          59.9341   85.4171    7.0554 O.2     1  UNL1       -0.1686
     26 O          62.8474   84.7643    7.3487 O.2     1  UNL1       -0.1686
     27 C          64.5194   88.3579   13.6438 C.3     1  UNL1        0.1354
     28 C          63.9441   88.0924   15.0033 C.ar    1  UNL1        0.0044
     29 C          63.4483   89.2318   15.8435 C.ar    1  UNL1       -0.0024
     30 C          62.8729   88.9664   17.2031 C.ar    1  UNL1       -0.0003
     31 C          62.7933   87.5614   17.7225 C.ar    1  UNL1       -0.0001
     32 C          63.2891   86.4220   16.8824 C.ar    1  UNL1        0.0036
     33 C          63.8645   86.6875   15.5228 C.ar    1  UNL1        0.0693
     34 C          64.3602   85.5480   14.6827 C.3     1  UNL1        0.4183
     35 F          64.8561   84.4085   13.8426 F       1  UNL1       -0.1659
     36 F          62.9461   85.1909   14.3325 F       1  UNL1       -0.1659
     37 F          65.7744   85.9050   15.0329 F       1  UNL1       -0.1659
@<TRIPOS>BOND
     1    23    24    1
     2    24    25    2
     3    24    26    2
     4    24    17    1
     5    17    18   ar
     6    18    19   ar
     7    19    20   ar
     8    20    15    1
     9    15     1    1
    10     1     2   ar
    11     2     3   ar
    12     3     4   ar
    13     4     5   ar
    14     5    10    1
    15    10    11   am
    16    10    12    2
    17     5     6   ar
    18     6     7   ar
    19     7     8   ar
    20     8     9   ar
    21     9    27    1
    22    27    28    1
    23    28    29   ar
    24    29    30   ar
    25    30    31   ar
    26    31    32   ar
    27    32    33   ar
    28    33    34    1
    29    34    35    1
    30    34    36    1
    31    34    37    1
    32    20    21   ar
    33    21    22   ar
    34    22    17   ar
    35     9     1   ar
    36    33    28   ar
    37     8     3   ar
    38    15    16    1
    39    11    13    1
    40    11    14    1
@<TRIPOS>MOLECULE
*****
 37 40 0 0 0
SMALL
GASTEIGER

@<TRIPOS>ATOM
      1 C          61.9707   87.9906   11.4216 C.ar    1  UNL1        0.2019
      2 N          61.4730   88.0676   10.0087 N.ar    1  UNL1       -0.2135
      3 C          61.8894   86.8121    9.3014 C.ar    1  UNL1        0.1001
      4 C          61.6786   86.3354    7.8949 C.ar    1  UNL1        0.0252
      5 C          62.2228   85.0056    7.4643 C.ar    1  UNL1        0.0547
      6 C          62.9778   84.1525    8.4401 C.ar    1  UNL1        0.0061
      7 C          63.1886   84.6292    9.8466 C.ar    1  UNL1        0.0189
      8 C          62.6444   85.9590   10.2773 C.ar    1  UNL1        0.0802
      9 N          62.6946   86.6874   11.5876 N.ar    1  UNL1       -0.2953
     10 C          62.0120   84.5288    6.0577 C.2     1  UNL1        0.2428
     11 N          60.7801   83.7481    5.7072 N.am    1  UNL1       -0.3253
     12 O          63.0330   84.8328    5.0018 O.2     1  UNL1       -0.2704
     13 H          60.1099   83.5486    6.4002 H       1  UNL1        0.1453
     14 H          60.6417   83.4352    4.7840 H       1  UNL1        0.1453
     15 N          61.7782   89.0336   12.4823 N.pl3   1  UNL1       -0.2839
     16 H          60.8883   89.1735   12.8794 H       1  UNL1        0.1550
     17 C          65.2686   91.5231   13.8496 C.ar    1  UNL1        0.1058
     18 C          64.7371   90.4300   14.7285 C.ar    1  UNL1        0.0196
     19 C          63.5736   89.6001   14.2728 C.ar    1  UNL1        0.0160
     20 C          62.9416   89.8634   12.9381 C.ar    1  UNL1        0.0505
     21 C          63.4732   90.9566   12.0592 C.ar    1  UNL1        0.0160
     22 C          64.6367   91.7865   12.5150 C.ar    1  UNL1        0.0196
     23 C          67.5955   93.1828   14.7612 C.3     1  UNL1        0.1816
     24 S          66.4321   92.3530   14.3054 S.O2    1  UNL1        0.0105
     25 O          67.1853   91.9790   13.0634 O.2     1  UNL1       -0.1686
     26 O          65.6788   92.7270   15.5474 O.2     1  UNL1       -0.1686
     27 C          63.3532   86.1983   12.8434 C.3     1  UNL1        0.1354
     28 C          63.0614   84.8189   13.3552 C.ar    1  UNL1        0.0044
     29 C          62.7480   83.7124   12.3921 C.ar    1  UNL1       -0.0024
     30 C          62.4562   82.3329   12.9038 C.ar    1  UNL1       -0.0003
     31 C          62.4776   82.0600   14.3787 C.ar    1  UNL1       -0.0001
     32 C          62.7909   83.1665   15.3417 C.ar    1  UNL1        0.0036
     33 C          63.0828   84.5459   14.8300 C.ar    1  UNL1        0.0693
     34 C          63.3961   85.6524   15.7931 C.3     1  UNL1        0.4183
     35 F          63.7095   86.7588   16.7561 F       1  UNL1       -0.1659
     36 F          61.9993   85.5765   16.3346 F       1  UNL1       -0.1659
     37 F          64.7929   85.7283   15.2515 F       1  UNL1       -0.1659
@<TRIPOS>BOND
     1    23    24    1
     2    24    25    2
     3    24    26    2
     4    24    17    1
     5    17    18   ar
     6    18    19   ar
     7    19    20   ar
     8    20    15    1
     9    15     1    1
    10     1     2   ar
    11     2     3   ar
    12     3     4   ar
    13     4     5   ar
    14     5    10    1
    15    10    11   am
    16    10    12    2
    17     5     6   ar
    18     6     7   ar
    19     7     8   ar
    20     8     9   ar
    21     9    27    1
    22    27    28    1
    23    28    29   ar
    24    29    30   ar
    25    30    31   ar
    26    31    32   ar
    27    32    33   ar
    28    33    34    1
    29    34    35    1
    30    34    36    1
    31    34    37    1
    32    20    21   ar
    33    21    22   ar
    34    22    17   ar
    35     9     1   ar
    36    33    28   ar
    37     8     3   ar
    38    15    16    1
    39    11    13    1
    40    11    14    1
@<TRIPOS>MOLECULE
*****
 37 40 0 0 0
SMALL
GASTEIGER

@<TRIPOS>ATOM
      1 C          62.4497   90.5780   11.0852 C.ar    1  UNL1        0.2019
      2 N          63.1090   91.3846   10.0060 N.ar    1  UNL1       -0.2135
      3 C          64.2929   92.0827   10.6067 C.ar    1  UNL1        0.1001
      4 C          65.3144   93.0115   10.0203 C.ar    1  UNL1        0.0252
      5 C          66.4083   93.5652   10.8845 C.ar    1  UNL1        0.0547
      6 C          66.4807   93.1900   12.3350 C.ar    1  UNL1        0.0061
      7 C          65.4593   92.2612   12.9214 C.ar    1  UNL1        0.0189
      8 C          64.3654   91.7076   12.0573 C.ar    1  UNL1        0.0802
      9 N          63.2262   90.7776   12.3530 N.ar    1  UNL1       -0.2953
     10 C          67.4298   94.4940   10.2981 C.2     1  UNL1        0.2428
     11 N          67.1726   95.9716   10.2719 N.am    1  UNL1       -0.3253
     12 O          68.7085   93.9453    9.7380 O.2     1  UNL1       -0.2704
     13 H          66.3333   96.3317   10.6395 H       1  UNL1        0.1453
     14 H          67.8430   96.5812    9.8871 H       1  UNL1        0.1453
     15 N          61.2283   89.7220   10.9249 N.pl3   1  UNL1       -0.2839
     16 H          60.4186   89.9164   11.4500 H       1  UNL1        0.1550
     17 C          61.2654   86.2658    8.0433 C.ar    1  UNL1        0.1058
     18 C          60.1123   87.2251    8.0492 C.ar    1  UNL1        0.0196
     19 C          60.0999   88.3771    9.0096 C.ar    1  UNL1        0.0160
     20 C          61.2407   88.5700    9.9644 C.ar    1  UNL1        0.0505
     21 C          62.3939   87.6107    9.9586 C.ar    1  UNL1        0.0160
     22 C          62.4062   86.4586    8.9980 C.ar    1  UNL1        0.0196
     23 C          61.2901   83.9617    6.1223 C.3     1  UNL1        0.1816
     24 S          61.2777   85.1137    7.0828 S.O2    1  UNL1        0.0105
     25 O          62.7621   84.9851    7.2561 O.2     1  UNL1       -0.1686
     26 O          59.7934   85.2423    6.9094 O.2     1  UNL1       -0.1686
     27 C          62.9177   90.1563   13.6830 C.3     1  UNL1        0.1354
     28 C          63.3653   88.7556   13.9784 C.ar    1  UNL1        0.0044
     29 C          63.4520   87.7467   12.8717 C.ar    1  UNL1       -0.0024
     30 C          63.8997   86.3459   13.1670 C.ar    1  UNL1       -0.0003
     31 C          64.2607   85.9539   14.5692 C.ar    1  UNL1       -0.0001
     32 C          64.1740   86.9626   15.6759 C.ar    1  UNL1        0.0036
     33 C          63.7263   88.3635   15.3805 C.ar    1  UNL1        0.0693
     34 C          63.6397   89.3722   16.4873 C.3     1  UNL1        0.4183
     35 F          63.5530   90.3809   17.5941 F       1  UNL1       -0.1659
     36 F          64.4012   90.3564   15.6498 F       1  UNL1       -0.1659
     37 F          62.8781   88.3880   17.3247 F       1  UNL1       -0.1659
@<TRIPOS>BOND
     1    23    24    1
     2    24    25    2
     3    24    26    2
     4    24    17    1
     5    17    18   ar
     6    18    19   ar
     7    19    20   ar
     8    20    15    1
     9    15     1    1
    10     1     2   ar
    11     2     3   ar
    12     3     4   ar
    13     4     5   ar
    14     5    10    1
    15    10    11   am
    16    10    12    2
    17     5     6   ar
    18     6     7   ar
    19     7     8   ar
    20     8     9   ar
    21     9    27    1
    22    27    28    1
    23    28    29   ar
    24    29    30   ar
    25    30    31   ar
    26    31    32   ar
    27    32    33   ar
    28    33    34    1
    29    34    35    1
    30    34    36    1
    31    34    37    1
    32    20    21   ar
    33    21    22   ar
    34    22    17   ar
    35     9     1   ar
    36    33    28   ar
    37     8     3   ar
    38    15    16    1
    39    11    13    1
    40    11    14    1
