@<TRIPOS>MOLECULE
*****
 24 27 0 0 0
SMALL
GASTEIGER

@<TRIPOS>ATOM
      1 C          62.8715   86.3196   12.7370 C.ar    1  UNL1        0.1215
      2 N          63.7912   87.3117   13.3849 N.ar    1  UNL1       -0.2309
      3 C          63.5611   88.6467   12.7407 C.ar    1  UNL1        0.0983
      4 C          64.1813   89.9928   12.9716 C.ar    1  UNL1        0.0206
      5 C          63.7396   91.1718   12.1563 C.ar    1  UNL1        0.0016
      6 C          62.6777   91.0048   11.1102 C.ar    1  UNL1        0.0016
      7 C          62.0574   89.6587   10.8794 C.ar    1  UNL1        0.0188
      8 C          62.4991   88.4797   11.6946 C.ar    1  UNL1        0.0789
      9 N          62.0729   87.0415   11.6923 N.ar    1  UNL1       -0.3106
     10 C          63.0764   81.3372   11.2764 C.3     1  UNL1        0.0896
     11 N          62.8708   82.3705   12.3442 N.3     1  UNL1       -0.2711
     12 C          62.5622   81.9459   13.7493 C.3     1  UNL1        0.0722
     13 C          62.3567   82.9792   14.8170 C.3     1  UNL1        0.0178
     14 C          62.4598   84.4371   14.4795 C.3     1  UNL1        0.0103
     15 C          62.7684   84.8617   13.0744 C.3     1  UNL1        0.0729
     16 C          62.9739   83.8284   12.0067 C.3     1  UNL1        0.0796
     17 C          61.0311   86.4321   10.8017 C.3     1  UNL1        0.1339
     18 C          61.4079   85.9357    9.4373 C.ar    1  UNL1        0.0006
     19 C          62.7862   85.3984    9.1889 C.ar    1  UNL1       -0.0001
     20 C          63.1630   84.9020    7.8245 C.ar    1  UNL1        0.0294
     21 C          62.1615   84.9429    6.7085 C.ar    1  UNL1        0.1401
     22 F          62.5384   84.4465    5.3441 F       1  UNL1       -0.2042
     23 C          60.7833   85.4801    6.9569 C.ar    1  UNL1        0.0294
     24 C          60.4065   85.9766    8.3213 C.ar    1  UNL1       -0.0001
@<TRIPOS>BOND
     1    10    11    1
     2    11    12    1
     3    12    13    1
     4    13    14    1
     5    14    15    1
     6    15     1    1
     7     1     2   ar
     8     2     3   ar
     9     3     4   ar
    10     4     5   ar
    11     5     6   ar
    12     6     7   ar
    13     7     8   ar
    14     8     9   ar
    15     9    17    1
    16    17    18    1
    17    18    19   ar
    18    19    20   ar
    19    20    21   ar
    20    21    22    1
    21    21    23   ar
    22    23    24   ar
    23    15    16    1
    24    16    11    1
    25     9     1   ar
    26    24    18   ar
    27     8     3   ar
@<TRIPOS>MOLECULE
*****
 24 27 0 0 0
SMALL
GASTEIGER

@<TRIPOS>ATOM
      1 C          64.4277   89.8470   14.2085 C.ar    1  UNL1        0.1215
      2 N          65.7575   90.5403   14.2371 N.ar    1  UNL1       -0.2309
      3 C          65.7897   91.5282   13.1088 C.ar    1  UNL1        0.0983
      4 C          66.8425   92.4924   12.6486 C.ar    1  UNL1        0.0206
      5 C          66.5854   93.3737   11.4625 C.ar    1  UNL1        0.0016
      6 C          65.2754   93.2909   10.7365 C.ar    1  UNL1        0.0016
      7 C          64.2226   92.3268   11.1966 C.ar    1  UNL1        0.0188
      8 C          64.4797   91.4454   12.3828 C.ar    1  UNL1        0.0789
      9 N          63.6379   90.4064   13.0624 N.ar    1  UNL1       -0.3106
     10 C          63.9639   84.8238   15.4545 C.3     1  UNL1        0.0896
     11 N          63.7363   86.2699   15.7820 N.3     1  UNL1       -0.2711
     12 C          63.0494   86.6503   17.0600 C.3     1  UNL1        0.0722
     13 C          62.8218   88.0963   17.3875 C.3     1  UNL1        0.0178
     14 C          63.2813   89.1619   16.4370 C.3     1  UNL1        0.0103
     15 C          63.9682   88.7814   15.1590 C.3     1  UNL1        0.0729
     16 C          64.1957   87.3354   14.8315 C.3     1  UNL1        0.0796
     17 C          62.2501   89.9983   12.6657 C.3     1  UNL1        0.1339
     18 C          62.0456   89.0436   11.5270 C.ar    1  UNL1        0.0006
     19 C          61.3142   89.4903   10.2958 C.ar    1  UNL1       -0.0001
     20 C          61.1098   88.5356    9.1571 C.ar    1  UNL1        0.0294
     21 C          61.6367   87.1342    9.2495 C.ar    1  UNL1        0.1401
     22 F          61.4322   86.1795    8.1108 F       1  UNL1       -0.2042
     23 C          62.3680   86.6876   10.4806 C.ar    1  UNL1        0.0294
     24 C          62.5725   87.6423   11.6193 C.ar    1  UNL1       -0.0001
@<TRIPOS>BOND
     1    10    11    1
     2    11    12    1
     3    12    13    1
     4    13    14    1
     5    14    15    1
     6    15     1    1
     7     1     2   ar
     8     2     3   ar
     9     3     4   ar
    10     4     5   ar
    11     5     6   ar
    12     6     7   ar
    13     7     8   ar
    14     8     9   ar
    15     9    17    1
    16    17    18    1
    17    18    19   ar
    18    19    20   ar
    19    20    21   ar
    20    21    22    1
    21    21    23   ar
    22    23    24   ar
    23    15    16    1
    24    16    11    1
    25     9     1   ar
    26    24    18   ar
    27     8     3   ar
@<TRIPOS>MOLECULE
*****
 24 27 0 0 0
SMALL
GASTEIGER

@<TRIPOS>ATOM
      1 C          63.6386   90.6430   12.9480 C.ar    1  UNL1        0.1215
      2 N          64.5765   91.5712   12.2347 N.ar    1  UNL1       -0.2309
      3 C          65.4912   92.1806   13.2554 C.ar    1  UNL1        0.0983
      4 C          66.6152   93.1665   13.1346 C.ar    1  UNL1        0.0206
      5 C          67.3666   93.6008   14.3579 C.ar    1  UNL1        0.0016
      6 C          66.9940   93.0493   15.7022 C.ar    1  UNL1        0.0016
      7 C          65.8701   92.0634   15.8231 C.ar    1  UNL1        0.0188
      8 C          65.1186   91.6291   14.5997 C.ar    1  UNL1        0.0789
      9 N          63.9737   90.6788   14.4097 N.ar    1  UNL1       -0.3106
     10 C          61.9957   86.1431   10.9353 C.3     1  UNL1        0.0896
     11 N          61.7343   87.5731   11.3051 N.3     1  UNL1       -0.2711
     12 C          60.3902   88.1831   11.0385 C.3     1  UNL1        0.0722
     13 C          60.1288   89.6131   11.4083 C.3     1  UNL1        0.0178
     14 C          61.2117   90.4331   12.0448 C.3     1  UNL1        0.0103
     15 C          62.5558   89.8231   12.3115 C.3     1  UNL1        0.0729
     16 C          62.8171   88.3931   11.9417 C.3     1  UNL1        0.0796
     17 C          63.2848   89.9009   15.4915 C.3     1  UNL1        0.1339
     18 C          63.5335   88.4283   15.6309 C.ar    1  UNL1        0.0006
     19 C          62.9179   87.6681   16.7681 C.ar    1  UNL1       -0.0001
     20 C          63.1666   86.1954   16.9077 C.ar    1  UNL1        0.0294
     21 C          64.0310   85.4830   15.9100 C.ar    1  UNL1        0.1401
     22 F          64.2797   84.0104   16.0495 F       1  UNL1       -0.2042
     23 C          64.6466   86.2432   14.7729 C.ar    1  UNL1        0.0294
     24 C          64.3979   87.7158   14.6333 C.ar    1  UNL1       -0.0001
@<TRIPOS>BOND
     1    10    11    1
     2    11    12    1
     3    12    13    1
     4    13    14    1
     5    14    15    1
     6    15     1    1
     7     1     2   ar
     8     2     3   ar
     9     3     4   ar
    10     4     5   ar
    11     5     6   ar
    12     6     7   ar
    13     7     8   ar
    14     8     9   ar
    15     9    17    1
    16    17    18    1
    17    18    19   ar
    18    19    20   ar
    19    20    21   ar
    20    21    22    1
    21    21    23   ar
    22    23    24   ar
    23    15    16    1
    24    16    11    1
    25     9     1   ar
    26    24    18   ar
    27     8     3   ar
@<TRIPOS>MOLECULE
*****
 24 27 0 0 0
SMALL
GASTEIGER

@<TRIPOS>ATOM
      1 C          63.5583   86.4325   13.1968 C.ar    1  UNL1        0.1215
      2 N          64.3236   85.4450   14.0270 N.ar    1  UNL1       -0.2309
      3 C          63.8848   84.0667   13.6297 C.ar    1  UNL1        0.0983
      4 C          64.2952   82.7057   14.1085 C.ar    1  UNL1        0.0206
      5 C          63.6690   81.4804   13.5115 C.ar    1  UNL1        0.0016
      6 C          62.6325   81.6160   12.4357 C.ar    1  UNL1        0.0016
      7 C          62.2222   82.9770   11.9569 C.ar    1  UNL1        0.0188
      8 C          62.8483   84.2024   12.5539 C.ar    1  UNL1        0.0789
      9 N          62.6466   85.6645   12.2864 N.ar    1  UNL1       -0.3106
     10 C          62.8572   91.1096   11.0444 C.3     1  UNL1        0.0896
     11 N          63.3324   90.2643   12.1889 N.3     1  UNL1       -0.2711
     12 C          63.9321   90.9123   13.4015 C.3     1  UNL1        0.0722
     13 C          64.4071   90.0669   14.5459 C.3     1  UNL1        0.0178
     14 C          64.2826   88.5737   14.4777 C.3     1  UNL1        0.0103
     15 C          63.6829   87.9257   13.2650 C.3     1  UNL1        0.0729
     16 C          63.2078   88.7711   12.1206 C.3     1  UNL1        0.0796
     17 C          61.6993   86.2549   11.2843 C.3     1  UNL1        0.1339
     18 C          61.7833   85.8487    9.8429 C.ar    1  UNL1        0.0006
     19 C          60.6255   86.1026    8.9234 C.ar    1  UNL1       -0.0001
     20 C          60.7095   85.6964    7.4819 C.ar    1  UNL1        0.0294
     21 C          61.9512   85.0364    6.9598 C.ar    1  UNL1        0.1401
     22 F          62.0351   84.6303    5.5183 F       1  UNL1       -0.2042
     23 C          63.1089   84.7826    7.8792 C.ar    1  UNL1        0.0294
     24 C          63.0249   85.1887    9.3207 C.ar    1  UNL1       -0.0001
@<TRIPOS>BOND
     1    10    11    1
     2    11    12    1
     3    12    13    1
     4    13    14    1
     5    14    15    1
     6    15     1    1
     7     1     2   ar
     8     2     3   ar
     9     3     4   ar
    10     4     5   ar
    11     5     6   ar
    12     6     7   ar
    13     7     8   ar
    14     8     9   ar
    15     9    17    1
    16    17    18    1
    17    18    19   ar
    18    19    20   ar
    19    20    21   ar
    20    21    22    1
    21    21    23   ar
    22    23    24   ar
    23    15    16    1
    24    16    11    1
    25     9     1   ar
    26    24    18   ar
    27     8     3   ar
@<TRIPOS>MOLECULE
*****
 24 27 0 0 0
SMALL
GASTEIGER

@<TRIPOS>ATOM
      1 C          62.1303   89.3031   10.8618 C.ar    1  UNL1        0.1215
      2 N          61.5761   90.0919    9.7125 N.ar    1  UNL1       -0.2309
      3 C          60.6425   89.2019    8.9468 C.ar    1  UNL1        0.0983
      4 C          59.8102   89.4376    7.7214 C.ar    1  UNL1        0.0206
      5 C          58.9551   88.3345    7.1720 C.ar    1  UNL1        0.0016
      6 C          58.9323   86.9957    7.8480 C.ar    1  UNL1        0.0016
      7 C          59.7645   86.7599    9.0734 C.ar    1  UNL1        0.0188
      8 C          60.6196   87.8630    9.6228 C.ar    1  UNL1        0.0789
      9 N          61.5391   87.9256   10.8063 N.ar    1  UNL1       -0.3106
     10 C          65.5207   92.8979   12.4687 C.3     1  UNL1        0.0896
     11 N          64.7997   91.6013   12.6900 N.3     1  UNL1       -0.2711
     12 C          65.0530   90.8055   13.9360 C.3     1  UNL1        0.0722
     13 C          64.3320   89.5089   14.1572 C.3     1  UNL1        0.0178
     14 C          63.3577   89.0081   13.1325 C.3     1  UNL1        0.0103
     15 C          63.1045   89.8039   11.8865 C.3     1  UNL1        0.0729
     16 C          63.8255   91.1005   11.6653 C.3     1  UNL1        0.0796
     17 C          61.8185   86.8070   11.7659 C.3     1  UNL1        0.1339
     18 C          62.5281   85.5730   11.2933 C.ar    1  UNL1        0.0006
     19 C          62.7690   85.3611    9.8279 C.ar    1  UNL1       -0.0001
     20 C          63.4786   84.1270    9.3552 C.ar    1  UNL1        0.0294
     21 C          63.9473   83.1048   10.3479 C.ar    1  UNL1        0.1401
     22 F          64.6570   81.8707    9.8752 F       1  UNL1       -0.2042
     23 C          63.7065   83.3167   11.8132 C.ar    1  UNL1        0.0294
     24 C          62.9968   84.5507   12.2859 C.ar    1  UNL1       -0.0001
@<TRIPOS>BOND
     1    10    11    1
     2    11    12    1
     3    12    13    1
     4    13    14    1
     5    14    15    1
     6    15     1    1
     7     1     2   ar
     8     2     3   ar
     9     3     4   ar
    10     4     5   ar
    11     5     6   ar
    12     6     7   ar
    13     7     8   ar
    14     8     9   ar
    15     9    17    1
    16    17    18    1
    17    18    19   ar
    18    19    20   ar
    19    20    21   ar
    20    21    22    1
    21    21    23   ar
    22    23    24   ar
    23    15    16    1
    24    16    11    1
    25     9     1   ar
    26    24    18   ar
    27     8     3   ar
@<TRIPOS>MOLECULE
*****
 24 27 0 0 0
SMALL
GASTEIGER

@<TRIPOS>ATOM
      1 C          63.3402   89.2150   12.8783 C.ar    1  UNL1        0.1215
      2 N          62.6233   89.6171   11.6235 N.ar    1  UNL1       -0.2309
      3 C          62.2453   88.3676   10.8848 C.ar    1  UNL1        0.0983
      4 C          61.5235   88.1475    9.5884 C.ar    1  UNL1        0.0206
      5 C          61.2850   86.7529    9.0903 C.ar    1  UNL1        0.0016
      6 C          61.7682   85.5784    9.8885 C.ar    1  UNL1        0.0016
      7 C          62.4900   85.7985   11.1848 C.ar    1  UNL1        0.0188
      8 C          62.7285   87.1931   11.6830 C.ar    1  UNL1        0.0789
      9 N          63.4052   87.7168   12.9150 N.ar    1  UNL1       -0.3106
     10 C          66.4798   93.1471   14.1749 C.3     1  UNL1        0.0896
     11 N          65.4644   92.1132   14.5627 N.3     1  UNL1       -0.2711
     12 C          65.0036   92.0117   15.9865 C.3     1  UNL1        0.0722
     13 C          63.9882   90.9779   16.3742 C.3     1  UNL1        0.0178
     14 C          63.4338   90.0457   15.3381 C.3     1  UNL1        0.0103
     15 C          63.8946   90.1472   13.9143 C.3     1  UNL1        0.0729
     16 C          64.9100   91.1810   13.5266 C.3     1  UNL1        0.0796
     17 C          64.0361   86.8879   13.9942 C.3     1  UNL1        0.1339
     18 C          63.7645   85.4144   14.0637 C.ar    1  UNL1        0.0006
     19 C          64.6532   84.4526   13.3321 C.ar    1  UNL1       -0.0001
     20 C          64.3817   82.9790   13.4016 C.ar    1  UNL1        0.0294
     21 C          63.2213   82.4672   14.2027 C.ar    1  UNL1        0.1401
     22 F          62.9497   80.9936   14.2721 F       1  UNL1       -0.2042
     23 C          62.3326   83.4289   14.9342 C.ar    1  UNL1        0.0294
     24 C          62.6042   84.9025   14.8648 C.ar    1  UNL1       -0.0001
@<TRIPOS>BOND
     1    10    11    1
     2    11    12    1
     3    12    13    1
     4    13    14    1
     5    14    15    1
     6    15     1    1
     7     1     2   ar
     8     2     3   ar
     9     3     4   ar
    10     4     5   ar
    11     5     6   ar
    12     6     7   ar
    13     7     8   ar
    14     8     9   ar
    15     9    17    1
    16    17    18    1
    17    18    19   ar
    18    19    20   ar
    19    20    21   ar
    20    21    22    1
    21    21    23   ar
    22    23    24   ar
    23    15    16    1
    24    16    11    1
    25     9     1   ar
    26    24    18   ar
    27     8     3   ar
@<TRIPOS>MOLECULE
*****
 24 27 0 0 0
SMALL
GASTEIGER

@<TRIPOS>ATOM
      1 C          63.7915   87.3168   14.1981 C.ar    1  UNL1        0.1215
      2 N          64.0974   86.0387   14.9213 N.ar    1  UNL1       -0.2309
      3 C          63.7737   84.8976   14.0031 C.ar    1  UNL1        0.0983
      4 C          63.8744   83.4110   14.1755 C.ar    1  UNL1        0.0206
      5 C          63.4691   82.4972   13.0572 C.ar    1  UNL1        0.0016
      6 C          62.9631   83.0700   11.7665 C.ar    1  UNL1        0.0016
      7 C          62.8624   84.5566   11.5941 C.ar    1  UNL1        0.0188
      8 C          63.2678   85.4704   12.7124 C.ar    1  UNL1        0.0789
      9 N          63.2787   86.9655   12.8329 N.ar    1  UNL1       -0.3106
     10 C          65.7739   92.1014   13.7771 C.3     1  UNL1        0.0896
     11 N          64.9586   91.0950   14.5337 N.3     1  UNL1       -0.2711
     12 C          64.3192   91.4746   15.8364 C.3     1  UNL1        0.0722
     13 C          63.5039   90.4682   16.5930 C.3     1  UNL1        0.0178
     14 C          63.3280   89.0823   16.0469 C.3     1  UNL1        0.0103
     15 C          63.9674   88.7027   14.7442 C.3     1  UNL1        0.0729
     16 C          64.7827   89.7091   13.9876 C.3     1  UNL1        0.0796
     17 C          62.8519   87.9385   11.7741 C.3     1  UNL1        0.1339
     18 C          61.9266   87.4974   10.6792 C.ar    1  UNL1        0.0006
     19 C          62.4710   86.7741    9.4831 C.ar    1  UNL1       -0.0001
     20 C          61.5457   86.3329    8.3880 C.ar    1  UNL1        0.0294
     21 C          60.0759   86.6150    8.4890 C.ar    1  UNL1        0.1401
     22 F          59.1506   86.1738    7.3940 F       1  UNL1       -0.2042
     23 C          59.5315   87.3383    9.6850 C.ar    1  UNL1        0.0294
     24 C          60.4568   87.7795   10.7801 C.ar    1  UNL1       -0.0001
@<TRIPOS>BOND
     1    10    11    1
     2    11    12    1
     3    12    13    1
     4    13    14    1
     5    14    15    1
     6    15     1    1
     7     1     2   ar
     8     2     3   ar
     9     3     4   ar
    10     4     5   ar
    11     5     6   ar
    12     6     7   ar
    13     7     8   ar
    14     8     9   ar
    15     9    17    1
    16    17    18    1
    17    18    19   ar
    18    19    20   ar
    19    20    21   ar
    20    21    22    1
    21    21    23   ar
    22    23    24   ar
    23    15    16    1
    24    16    11    1
    25     9     1   ar
    26    24    18   ar
    27     8     3   ar
@<TRIPOS>MOLECULE
*****
 24 27 0 0 0
SMALL
GASTEIGER

@<TRIPOS>ATOM
      1 C          63.0738   85.9029   12.9106 C.ar    1  UNL1        0.1215
      2 N          62.8319   85.1523   14.1866 N.ar    1  UNL1       -0.2309
      3 C          62.6934   83.6973   13.8494 C.ar    1  UNL1        0.0983
      4 C          62.4451   82.4886   14.7022 C.ar    1  UNL1        0.0206
      5 C          62.3531   81.1312   14.0707 C.ar    1  UNL1        0.0016
      6 C          62.5095   80.9825   12.5863 C.ar    1  UNL1        0.0016
      7 C          62.7577   82.1911   11.7335 C.ar    1  UNL1        0.0188
      8 C          62.8497   83.5486   12.3650 C.ar    1  UNL1        0.0789
      9 N          63.0848   84.9117   11.7848 N.ar    1  UNL1       -0.3106
     10 C          65.0511   90.3530   14.7236 C.3     1  UNL1        0.0896
     11 N          64.2589   89.6095   13.6893 N.3     1  UNL1       -0.2711
     12 C          63.6631   90.3476   12.5273 C.3     1  UNL1        0.0722
     13 C          62.8710   89.6042   11.4931 C.3     1  UNL1        0.0178
     14 C          62.6745   88.1226   11.6208 C.3     1  UNL1        0.0103
     15 C          63.2703   87.3845   12.7828 C.3     1  UNL1        0.0729
     16 C          64.0624   88.1279   13.8170 C.3     1  UNL1        0.0796
     17 C          63.2942   85.2280   10.3336 C.3     1  UNL1        0.1339
     18 C          62.1319   85.6430    9.4811 C.ar    1  UNL1        0.0006
     19 C          60.9852   86.3939   10.0904 C.ar    1  UNL1       -0.0001
     20 C          59.8228   86.8089    9.2380 C.ar    1  UNL1        0.0294
     21 C          59.8072   86.4731    7.7761 C.ar    1  UNL1        0.1401
     22 F          58.6449   86.8881    6.9237 F       1  UNL1       -0.2042
     23 C          60.9539   85.7222    7.1668 C.ar    1  UNL1        0.0294
     24 C          62.1163   85.3072    8.0192 C.ar    1  UNL1       -0.0001
@<TRIPOS>BOND
     1    10    11    1
     2    11    12    1
     3    12    13    1
     4    13    14    1
     5    14    15    1
     6    15     1    1
     7     1     2   ar
     8     2     3   ar
     9     3     4   ar
    10     4     5   ar
    11     5     6   ar
    12     6     7   ar
    13     7     8   ar
    14     8     9   ar
    15     9    17    1
    16    17    18    1
    17    18    19   ar
    18    19    20   ar
    19    20    21   ar
    20    21    22    1
    21    21    23   ar
    22    23    24   ar
    23    15    16    1
    24    16    11    1
    25     9     1   ar
    26    24    18   ar
    27     8     3   ar
@<TRIPOS>MOLECULE
*****
 24 27 0 0 0
SMALL
GASTEIGER

@<TRIPOS>ATOM
      1 C          63.3763   85.0199   13.4619 C.ar    1  UNL1        0.1215
      2 N          63.8632   85.9386   14.5431 N.ar    1  UNL1       -0.2309
      3 C          63.8085   87.3426   14.0179 C.ar    1  UNL1        0.0983
      4 C          64.1655   88.6608   14.6382 C.ar    1  UNL1        0.0206
      5 C          64.0018   89.9281   13.8526 C.ar    1  UNL1        0.0016
      6 C          63.4812   89.8772   12.4468 C.ar    1  UNL1        0.0016
      7 C          63.1242   88.5589   11.8265 C.ar    1  UNL1        0.0188
      8 C          63.2878   87.2917   12.6121 C.ar    1  UNL1        0.0789
      9 N          63.0207   85.8562   12.2684 N.ar    1  UNL1       -0.3106
     10 C          60.4992   80.7629   14.2367 C.3     1  UNL1        0.0896
     11 N          61.8262   81.3986   13.9447 N.3     1  UNL1       -0.2711
     12 C          63.0414   80.5415   13.7482 C.3     1  UNL1        0.0722
     13 C          64.3682   81.1773   13.4562 C.3     1  UNL1        0.0178
     14 C          64.4799   82.6701   13.3608 C.3     1  UNL1        0.0103
     15 C          63.2647   83.5271   13.5573 C.3     1  UNL1        0.0729
     16 C          61.9378   82.8914   13.8493 C.3     1  UNL1        0.0796
     17 C          62.4911   85.3465   10.9609 C.3     1  UNL1        0.1339
     18 C          61.5643   86.1973   10.1442 C.ar    1  UNL1        0.0006
     19 C          61.5563   86.0756    8.6491 C.ar    1  UNL1       -0.0001
     20 C          60.6295   86.9264    7.8323 C.ar    1  UNL1        0.0294
     21 C          59.7108   87.8990    8.5106 C.ar    1  UNL1        0.1401
     22 F          58.7840   88.7499    7.6938 F       1  UNL1       -0.2042
     23 C          59.7188   88.0207   10.0056 C.ar    1  UNL1        0.0294
     24 C          60.6456   87.1699   10.8224 C.ar    1  UNL1       -0.0001
@<TRIPOS>BOND
     1    10    11    1
     2    11    12    1
     3    12    13    1
     4    13    14    1
     5    14    15    1
     6    15     1    1
     7     1     2   ar
     8     2     3   ar
     9     3     4   ar
    10     4     5   ar
    11     5     6   ar
    12     6     7   ar
    13     7     8   ar
    14     8     9   ar
    15     9    17    1
    16    17    18    1
    17    18    19   ar
    18    19    20   ar
    19    20    21   ar
    20    21    22    1
    21    21    23   ar
    22    23    24   ar
    23    15    16    1
    24    16    11    1
    25     9     1   ar
    26    24    18   ar
    27     8     3   ar
