@<TRIPOS>MOLECULE
*****
 39 44 0 0 0
SMALL
GASTEIGER

@<TRIPOS>ATOM
      1 C          59.7551   89.4194    7.0542 C.ar    1  UNL1        0.2203
      2 N          59.0030   88.1238    6.9781 N.ar    1  UNL1       -0.2121
      3 C          58.9886   87.1946    8.1555 C.ar    1  UNL1        0.1035
      4 C          59.7262   87.5611    9.4091 C.ar    1  UNL1        0.0445
      5 C          60.4783   88.8567    9.4853 C.ar    1  UNL1        0.1389
      6 N          60.4927   89.7858    8.3078 N.ar    1  UNL1       -0.2090
      7 C          57.1729   90.4303    5.9094 C.3     1  UNL1        0.0233
      8 C          58.4784   90.8540    5.3043 C.3     1  UNL1        0.0953
      9 C          58.4928   91.7831    4.1269 C.3     1  UNL1        0.1106
     10 N          59.7983   92.2068    3.5218 N.pl3   1  UNL1       -0.3041
     11 C          61.0894   91.7014    4.0942 C.3     1  UNL1        0.1123
     12 C          61.0750   90.7723    5.2716 C.3     1  UNL1        0.1150
     13 N          59.7695   90.3486    5.8767 N.pl3   1  UNL1       -0.2764
     14 C          59.8127   93.1360    2.3443 C.ar    1  UNL1        0.0480
     15 C          59.1150   92.7482    1.0743 C.ar    1  UNL1        0.0158
     16 C          59.1294   93.6773   -0.1032 C.ar    1  UNL1        0.0196
     17 C          59.8415   94.9943   -0.0108 C.ar    1  UNL1        0.1058
     18 C          60.5391   95.3822    1.2592 C.ar    1  UNL1        0.0196
     19 C          60.5247   94.4530    2.4367 C.ar    1  UNL1        0.0158
     20 S          59.8558   95.9234   -1.1882 S.O2    1  UNL1        0.0105
     21 C          59.8702   96.8525   -2.3657 C.3     1  UNL1        0.1816
     22 O          61.3416   96.0755   -1.0501 O.2     1  UNL1       -0.1686
     23 O          58.3700   95.7713   -1.3264 O.2     1  UNL1       -0.1686
     24 C          61.2160   89.2231   10.7389 C.2     1  UNL1        0.2637
     25 O          60.4624   89.4301   12.0192 O.2     1  UNL1       -0.2685
     26 N          62.7073   89.3825   10.7123 N.am    1  UNL1       -0.3013
     27 H          63.2019   89.2466    9.8720 H       1  UNL1        0.1497
     28 C          63.4450   89.7489   11.9659 C.3     1  UNL1        0.0719
     29 C          64.1979   91.0440   12.0417 C.3     1  UNL1        0.0203
     30 C          64.1826   90.1153   13.2195 C.3     1  UNL1        0.0018
     31 C          64.9203   90.4818   14.4731 C.3     1  UNL1        0.0024
     32 C          64.1674   89.1866   14.3973 C.3     1  UNL1        0.0018
     33 C          63.4297   88.8202   13.1437 C.3     1  UNL1        0.0203
     34 C          65.2450   91.4217   14.0074 C.3     1  UNL1        0.0285
     35 C          65.6885   92.7056   13.3711 C.3     1  UNL1        0.0884
     36 O          66.4414   94.0007   13.4469 O.3     1  UNL1       -0.3867
     37 C          65.6732   91.7769   14.5489 C.3     1  UNL1        0.0269
     38 C          64.9508   92.3391   12.1175 C.3     1  UNL1        0.0285
     39 H          66.8580   94.0820   14.3191 H       1  UNL1        0.2102
@<TRIPOS>BOND
     1     8     7    1
     2     8     9    1
     3     9    10    1
     4    10    14    1
     5    14    15   ar
     6    15    16   ar
     7    16    17   ar
     8    17    20    1
     9    20    21    1
    10    20    22    2
    11    20    23    2
    12    17    18   ar
    13    18    19   ar
    14    10    11    1
    15    11    12    1
    16    12    13    1
    17    13     1    1
    18     1     2   ar
    19     2     3   ar
    20     3     4   ar
    21     4     5   ar
    22     5    24    1
    23    24    25    2
    24    24    26   am
    25    26    28    1
    26    28    29    1
    27    29    30    1
    28    30    31    1
    29    31    32    1
    30    32    33    1
    31    33    34    1
    32    34    35    1
    33    35    36    1
    34    35    37    1
    35    35    38    1
    36     5     6   ar
    37    13     8    1
    38     6     1   ar
    39    19    14   ar
    40    33    28    1
    41    38    29    1
    42    37    31    1
    43    26    27    1
    44    36    39    1
@<TRIPOS>MOLECULE
*****
 39 44 0 0 0
SMALL
GASTEIGER

@<TRIPOS>ATOM
      1 C          59.2748   89.6064    6.4970 C.ar    1  UNL1        0.2203
      2 N          57.7862   89.7822    6.5515 N.ar    1  UNL1       -0.2121
      3 C          57.1163   90.7854    5.6601 C.ar    1  UNL1        0.1035
      4 C          57.9351   91.6128    4.7141 C.ar    1  UNL1        0.0445
      5 C          59.4237   91.4370    4.6595 C.ar    1  UNL1        0.1389
      6 N          60.0936   90.4338    5.5510 N.ar    1  UNL1       -0.2090
      7 C          60.3432   90.4520    9.1698 C.3     1  UNL1        0.0233
      8 C          60.4789   89.0259    8.7249 C.3     1  UNL1        0.0953
      9 C          61.1487   88.0227    9.6164 C.3     1  UNL1        0.1106
     10 N          61.2844   86.5966    9.1715 N.pl3   1  UNL1       -0.3041
     11 C          60.7502   86.1738    7.8352 C.3     1  UNL1        0.1123
     12 C          60.0804   87.1770    6.9437 C.3     1  UNL1        0.1150
     13 N          59.9447   88.6031    7.3886 N.pl3   1  UNL1       -0.2764
     14 C          61.9542   85.5933   10.0631 C.ar    1  UNL1        0.0480
     15 C          61.7051   85.6199   11.5420 C.ar    1  UNL1        0.0158
     16 C          62.3749   84.6167   12.4335 C.ar    1  UNL1        0.0196
     17 C          63.2939   83.5868   11.8461 C.ar    1  UNL1        0.1058
     18 C          63.5430   83.5603   10.3672 C.ar    1  UNL1        0.0196
     19 C          62.8732   84.5636    9.4757 C.ar    1  UNL1        0.0158
     20 S          63.9637   82.5836   12.7377 S.O2    1  UNL1        0.0105
     21 C          64.6335   81.5804   13.6292 C.3     1  UNL1        0.1816
     22 O          63.0195   82.9395   13.8475 O.2     1  UNL1       -0.1686
     23 O          64.9080   82.2278   11.6279 O.2     1  UNL1       -0.1686
     24 C          60.2425   92.2645    3.7135 C.2     1  UNL1        0.2637
     25 O          59.8156   93.6627    3.3778 O.2     1  UNL1       -0.2685
     26 N          61.4881   91.6937    3.1031 N.am    1  UNL1       -0.3013
     27 H          61.7683   90.7760    3.3234 H       1  UNL1        0.1497
     28 C          62.3069   92.5211    2.1571 C.3     1  UNL1        0.0719
     29 C          61.8754   92.6746    0.7287 C.3     1  UNL1        0.0203
     30 C          63.1257   93.3486    1.2110 C.3     1  UNL1        0.0018
     31 C          63.9444   94.1760    0.2650 C.3     1  UNL1        0.0024
     32 C          64.3759   94.0225    1.6933 C.3     1  UNL1        0.0018
     33 C          63.5572   93.1951    2.6394 C.3     1  UNL1        0.0203
     34 C          63.2336   93.9560   -0.5426 C.3     1  UNL1        0.0285
     35 C          62.2626   93.6555   -1.6457 C.3     1  UNL1        0.0884
     36 O          61.8311   93.8089   -3.0741 O.3     1  UNL1       -0.3867
     37 C          63.5129   94.3294   -1.1634 C.3     1  UNL1        0.0269
     38 C          61.4439   92.8281   -0.6997 C.3     1  UNL1        0.0285
     39 H          62.4664   94.3705   -3.5452 H       1  UNL1        0.2102
@<TRIPOS>BOND
     1     8     7    1
     2     8     9    1
     3     9    10    1
     4    10    14    1
     5    14    15   ar
     6    15    16   ar
     7    16    17   ar
     8    17    20    1
     9    20    21    1
    10    20    22    2
    11    20    23    2
    12    17    18   ar
    13    18    19   ar
    14    10    11    1
    15    11    12    1
    16    12    13    1
    17    13     1    1
    18     1     2   ar
    19     2     3   ar
    20     3     4   ar
    21     4     5   ar
    22     5    24    1
    23    24    25    2
    24    24    26   am
    25    26    28    1
    26    28    29    1
    27    29    30    1
    28    30    31    1
    29    31    32    1
    30    32    33    1
    31    33    34    1
    32    34    35    1
    33    35    36    1
    34    35    37    1
    35    35    38    1
    36     5     6   ar
    37    13     8    1
    38     6     1   ar
    39    19    14   ar
    40    33    28    1
    41    38    29    1
    42    37    31    1
    43    26    27    1
    44    36    39    1
@<TRIPOS>MOLECULE
*****
 39 44 0 0 0
SMALL
GASTEIGER

@<TRIPOS>ATOM
      1 C          59.4472   89.8987    6.7599 C.ar    1  UNL1        0.2203
      2 N          57.9521   89.9162    6.6396 N.ar    1  UNL1       -0.2121
      3 C          57.2962   90.7215    5.5573 C.ar    1  UNL1        0.1035
      4 C          58.1354   91.5091    4.5954 C.ar    1  UNL1        0.0445
      5 C          59.6304   91.4916    4.7157 C.ar    1  UNL1        0.1389
      6 N          60.2863   90.6863    5.7980 N.ar    1  UNL1       -0.2090
      7 C          59.1011   86.9195    6.8320 C.3     1  UNL1        0.0233
      8 C          59.9300   87.6039    7.8783 C.3     1  UNL1        0.0953
      9 C          60.5859   86.7986    8.9606 C.3     1  UNL1        0.1106
     10 N          61.4148   87.4830   10.0069 N.pl3   1  UNL1       -0.3041
     11 C          61.5878   88.9725    9.9708 C.3     1  UNL1        0.1123
     12 C          60.9319   89.7777    8.8885 C.3     1  UNL1        0.1150
     13 N          60.1030   89.0934    7.8423 N.pl3   1  UNL1       -0.2764
     14 C          62.0706   86.6777   11.0892 C.ar    1  UNL1        0.0480
     15 C          62.8462   87.3676   12.1720 C.ar    1  UNL1        0.0158
     16 C          63.5021   86.5624   13.2543 C.ar    1  UNL1        0.0196
     17 C          63.3824   85.0671   13.2539 C.ar    1  UNL1        0.1058
     18 C          62.6068   84.3772   12.1711 C.ar    1  UNL1        0.0196
     19 C          61.9509   85.1825   11.0887 C.ar    1  UNL1        0.0158
     20 S          64.0383   84.2619   14.3362 S.O2    1  UNL1        0.0105
     21 C          64.6941   83.4567   15.4185 C.3     1  UNL1        0.1816
     22 O          64.2663   83.1420   13.3647 O.2     1  UNL1       -0.1686
     23 O          63.8102   85.3819   15.3076 O.2     1  UNL1       -0.1686
     24 C          60.4696   92.2793    3.7537 C.2     1  UNL1        0.2637
     25 O          61.9466   92.0315    3.6698 O.2     1  UNL1       -0.2685
     26 N          59.8318   93.3147    2.8757 N.am    1  UNL1       -0.3013
     27 H          58.8623   93.4773    2.9308 H       1  UNL1        0.1497
     28 C          60.6709   94.1024    1.9137 C.3     1  UNL1        0.0719
     29 C          62.0910   93.6969    1.6509 C.3     1  UNL1        0.0203
     30 C          61.5101   94.8901    0.9518 C.3     1  UNL1        0.0018
     31 C          62.3493   95.6777   -0.0102 C.3     1  UNL1        0.0024
     32 C          60.9293   96.0833    0.2526 C.3     1  UNL1        0.0018
     33 C          60.0901   95.2956    1.2146 C.3     1  UNL1        0.0203
     34 C          63.1950   95.0020    0.1742 C.3     1  UNL1        0.0285
     35 C          64.3502   94.0790    0.4262 C.3     1  UNL1        0.0884
     36 O          65.7702   93.6734    0.1634 O.3     1  UNL1       -0.3867
     37 C          63.7693   95.2722   -0.2730 C.3     1  UNL1        0.0269
     38 C          63.5110   93.2913    1.3881 C.3     1  UNL1        0.0285
     39 H          66.1672   94.2833   -0.4780 H       1  UNL1        0.2102
@<TRIPOS>BOND
     1     8     7    1
     2     8     9    1
     3     9    10    1
     4    10    14    1
     5    14    15   ar
     6    15    16   ar
     7    16    17   ar
     8    17    20    1
     9    20    21    1
    10    20    22    2
    11    20    23    2
    12    17    18   ar
    13    18    19   ar
    14    10    11    1
    15    11    12    1
    16    12    13    1
    17    13     1    1
    18     1     2   ar
    19     2     3   ar
    20     3     4   ar
    21     4     5   ar
    22     5    24    1
    23    24    25    2
    24    24    26   am
    25    26    28    1
    26    28    29    1
    27    29    30    1
    28    30    31    1
    29    31    32    1
    30    32    33    1
    31    33    34    1
    32    34    35    1
    33    35    36    1
    34    35    37    1
    35    35    38    1
    36     5     6   ar
    37    13     8    1
    38     6     1   ar
    39    19    14   ar
    40    33    28    1
    41    38    29    1
    42    37    31    1
    43    26    27    1
    44    36    39    1
@<TRIPOS>MOLECULE
*****
 39 44 0 0 0
SMALL
GASTEIGER

@<TRIPOS>ATOM
      1 C          59.9696   90.0659    6.4057 C.ar    1  UNL1        0.2203
      2 N          59.1339   88.8204    6.3852 N.ar    1  UNL1       -0.2121
      3 C          59.0093   87.9803    7.6216 C.ar    1  UNL1        0.1035
      4 C          59.7205   88.3857    8.8785 C.ar    1  UNL1        0.0445
      5 C          60.5562   89.6312    8.8990 C.ar    1  UNL1        0.1389
      6 N          60.6807   90.4712    7.6626 N.ar    1  UNL1       -0.2090
      7 C          57.5372   91.3636    5.2226 C.3     1  UNL1        0.0233
      8 C          58.8779   91.5548    4.5777 C.3     1  UNL1        0.0953
      9 C          59.0025   92.3948    3.3413 C.3     1  UNL1        0.1106
     10 N          60.3432   92.5860    2.6964 N.pl3   1  UNL1       -0.3041
     11 C          61.5594   91.9372    3.2879 C.3     1  UNL1        0.1123
     12 C          61.4348   91.0971    4.5243 C.3     1  UNL1        0.1150
     13 N          60.0941   90.9059    5.1692 N.pl3   1  UNL1       -0.2764
     14 C          60.4678   93.4261    1.4599 C.ar    1  UNL1        0.0480
     15 C          61.1533   92.8752    0.2448 C.ar    1  UNL1        0.0158
     16 C          61.2779   93.7152   -0.9917 C.ar    1  UNL1        0.0196
     17 C          60.7168   95.1062   -1.0131 C.ar    1  UNL1        0.1058
     18 C          60.0312   95.6571    0.2020 C.ar    1  UNL1        0.0196
     19 C          59.9067   94.8170    1.4385 C.ar    1  UNL1        0.0158
     20 S          60.8414   95.9462   -2.2495 S.O2    1  UNL1        0.0105
     21 C          60.9659   96.7862   -3.4860 C.3     1  UNL1        0.1816
     22 O          59.5819   96.6734   -1.8823 O.2     1  UNL1       -0.1686
     23 O          62.1008   95.2189   -2.6167 O.2     1  UNL1       -0.1686
     24 C          61.2674   90.0366   10.1560 C.2     1  UNL1        0.2637
     25 O          60.4919   90.2426   11.4233 O.2     1  UNL1       -0.2685
     26 N          62.7540   90.2359   10.1456 N.am    1  UNL1       -0.3013
     27 H          63.2630   90.1007    9.3138 H       1  UNL1        0.1497
     28 C          63.4652   90.6413   11.4026 C.3     1  UNL1        0.0719
     29 C          63.2235   89.8882   12.6772 C.3     1  UNL1        0.0203
     30 C          64.1763   91.0466   12.6596 C.3     1  UNL1        0.0018
     31 C          64.8874   91.4519   13.9165 C.3     1  UNL1        0.0024
     32 C          65.1291   92.2049   12.6420 C.3     1  UNL1        0.0018
     33 C          64.4180   91.7996   11.3850 C.3     1  UNL1        0.0203
     34 C          64.3826   90.6440   14.4627 C.3     1  UNL1        0.0285
     35 C          63.6930   89.5405   15.2087 C.3     1  UNL1        0.0884
     36 O          63.4514   88.7874   16.4833 O.3     1  UNL1       -0.3867
     37 C          64.6458   90.6988   15.1911 C.3     1  UNL1        0.0269
     38 C          62.9819   89.1351   13.9517 C.3     1  UNL1        0.0285
     39 H          63.9850   89.1755   17.1943 H       1  UNL1        0.2102
@<TRIPOS>BOND
     1     8     7    1
     2     8     9    1
     3     9    10    1
     4    10    14    1
     5    14    15   ar
     6    15    16   ar
     7    16    17   ar
     8    17    20    1
     9    20    21    1
    10    20    22    2
    11    20    23    2
    12    17    18   ar
    13    18    19   ar
    14    10    11    1
    15    11    12    1
    16    12    13    1
    17    13     1    1
    18     1     2   ar
    19     2     3   ar
    20     3     4   ar
    21     4     5   ar
    22     5    24    1
    23    24    25    2
    24    24    26   am
    25    26    28    1
    26    28    29    1
    27    29    30    1
    28    30    31    1
    29    31    32    1
    30    32    33    1
    31    33    34    1
    32    34    35    1
    33    35    36    1
    34    35    37    1
    35    35    38    1
    36     5     6   ar
    37    13     8    1
    38     6     1   ar
    39    19    14   ar
    40    33    28    1
    41    38    29    1
    42    37    31    1
    43    26    27    1
    44    36    39    1
