@<TRIPOS>MOLECULE
*****
 34 38 0 0 0
SMALL
GASTEIGER

@<TRIPOS>ATOM
      1 C          62.9406   90.5665   11.7269 C.ar    1  UNL1        0.0727
      2 C          63.1829   91.5277   10.6011 C.ar    1  UNL1        0.1033
      3 N          64.3848   92.4247   10.6262 N.ar    1  UNL1       -0.2437
      4 C          65.3446   92.3605   11.7773 C.ar    1  UNL1        0.0815
      5 C          66.5466   93.2574   11.8024 C.ar    1  UNL1        0.0214
      6 C          67.5063   93.1932   12.9534 C.ar    1  UNL1        0.0312
      7 C          67.2640   92.2320   14.0792 C.ar    1  UNL1        0.1402
      8 F          68.2238   92.1678   15.2302 F       1  UNL1       -0.2042
      9 C          66.0621   91.3350   14.0540 C.ar    1  UNL1        0.0311
     10 C          65.1024   91.3993   12.9030 C.ar    1  UNL1        0.0201
     11 C          63.9003   90.5023   12.8778 C.ar    1  UNL1        0.0074
     12 N          61.4171   86.4247    8.6003 N.3     1  UNL1       -0.1559
     13 C          60.3222   86.6094    9.6089 C.3     1  UNL1        0.1169
     14 C          60.4294   87.6910   10.6427 C.3     1  UNL1        0.1129
     15 N          61.6314   88.5879   10.6679 N.am    1  UNL1       -0.2731
     16 C          61.7386   89.6695   11.7016 C.2     1  UNL1        0.2506
     17 O          60.6437   89.8541   12.7102 O.2     1  UNL1       -0.2699
     18 C          62.7263   88.4033    9.6593 C.3     1  UNL1        0.1129
     19 C          62.6191   87.3217    8.6256 C.3     1  UNL1        0.1169
     20 C          61.2028   84.2616    6.5328 C.3     1  UNL1        0.1960
     21 S          61.3099   85.3432    7.5666 S.O2    1  UNL1        0.0458
     22 O          62.7601   85.0133    7.7614 O.2     1  UNL1       -0.1572
     23 O          59.8597   85.6731    7.3717 O.2     1  UNL1       -0.1572
     24 C          63.6581   89.5411   14.0036 C.ar    1  UNL1        0.0002
     25 C          64.1013   88.1134   13.8794 C.ar    1  UNL1       -0.0003
     26 C          63.8591   87.1522   15.0052 C.ar    1  UNL1       -0.0033
     27 C          63.1736   87.6187   16.2552 C.ar    1  UNL1       -0.0097
     28 C          62.7303   89.0463   16.3794 C.ar    1  UNL1       -0.0033
     29 C          62.9726   90.0075   15.2536 C.ar    1  UNL1       -0.0003
     30 C          62.9313   86.6575   17.3810 C.3     1  UNL1        0.0981
     31 C          62.7370   86.1400   18.7754 C.3     1  UNL1        0.0196
     32 C          62.9852   87.6013   18.5456 C.3     1  UNL1        0.0196
     33 C          62.7932   85.3798   16.6075 C.1     1  UNL1        0.0752
     34 N          62.6551   84.1021   15.8339 N.1     1  UNL1       -0.1956
@<TRIPOS>BOND
     1    20    21    1
     2    21    22    2
     3    21    23    2
     4    21    12    1
     5    12    13    1
     6    13    14    1
     7    14    15    1
     8    15    16   am
     9    16    17    2
    10    16     1    1
    11     1     2   ar
    12     2     3   ar
    13     3     4   ar
    14     4     5   ar
    15     5     6   ar
    16     6     7   ar
    17     7     8    1
    18     7     9   ar
    19     9    10   ar
    20    10    11   ar
    21    11    24    1
    22    24    25   ar
    23    25    26   ar
    24    26    27   ar
    25    27    30    1
    26    30    33    1
    27    33    34    3
    28    30    31    1
    29    31    32    1
    30    27    28   ar
    31    28    29   ar
    32    15    18    1
    33    18    19    1
    34    19    12    1
    35    11     1   ar
    36    29    24   ar
    37    10     4   ar
    38    32    30    1
@<TRIPOS>MOLECULE
*****
 34 38 0 0 0
SMALL
GASTEIGER

@<TRIPOS>ATOM
      1 C          61.1455   89.6318   11.7629 C.ar    1  UNL1        0.0727
      2 C          60.4440   90.7589   11.0648 C.ar    1  UNL1        0.1033
      3 N          59.9126   90.5657    9.6754 N.ar    1  UNL1       -0.2437
      4 C          60.0827   89.2453    8.9842 C.ar    1  UNL1        0.0815
      5 C          59.5513   89.0521    7.5949 C.ar    1  UNL1        0.0214
      6 C          59.7214   87.7318    6.9038 C.ar    1  UNL1        0.0312
      7 C          60.4229   86.6046    7.6020 C.ar    1  UNL1        0.1402
      8 F          60.5930   85.2842    6.9108 F       1  UNL1       -0.2042
      9 C          60.9543   86.7978    8.9913 C.ar    1  UNL1        0.0311
     10 C          60.7842   88.1182    9.6824 C.ar    1  UNL1        0.0201
     11 C          61.3156   88.3115   11.0718 C.ar    1  UNL1        0.0074
     12 N          65.7509   91.6330   13.7719 N.3     1  UNL1       -0.1559
     13 C          64.9243   91.2236   14.9547 C.3     1  UNL1        0.1169
     14 C          63.5662   90.6209   14.7482 C.3     1  UNL1        0.1129
     15 N          63.0349   90.4277   13.3588 N.am    1  UNL1       -0.2731
     16 C          61.6769   89.8251   13.1523 C.2     1  UNL1        0.2506
     17 O          60.8503   89.4156   14.3351 O.2     1  UNL1       -0.2699
     18 C          63.8615   90.8371   12.1760 C.3     1  UNL1        0.1129
     19 C          65.2195   91.4397   12.3825 C.3     1  UNL1        0.1169
     20 C          68.4669   92.8383   14.1849 C.3     1  UNL1        0.1960
     21 S          67.1089   92.2356   13.9784 S.O2    1  UNL1        0.0458
     22 O          67.2301   92.4685   12.5016 O.2     1  UNL1       -0.1572
     23 O          66.9876   92.0028   15.4553 O.2     1  UNL1       -0.1572
     24 C          62.0171   87.1843   11.7700 C.ar    1  UNL1        0.0002
     25 C          61.5542   85.7721   11.5665 C.ar    1  UNL1       -0.0003
     26 C          62.2557   84.6449   12.2647 C.ar    1  UNL1       -0.0033
     27 C          63.4201   84.9300   13.1663 C.ar    1  UNL1       -0.0097
     28 C          63.8830   86.3422   13.3698 C.ar    1  UNL1       -0.0033
     29 C          63.1815   87.4694   12.6716 C.ar    1  UNL1       -0.0003
     30 C          64.1216   83.8029   13.8645 C.3     1  UNL1        0.0981
     31 C          64.7035   82.9752   14.9719 C.3     1  UNL1        0.0196
     32 C          64.0209   84.2736   15.2852 C.3     1  UNL1        0.0196
     33 C          64.4660   82.9408   12.6864 C.1     1  UNL1        0.0752
     34 N          64.8103   82.0786   11.5082 N.1     1  UNL1       -0.1956
@<TRIPOS>BOND
     1    20    21    1
     2    21    22    2
     3    21    23    2
     4    21    12    1
     5    12    13    1
     6    13    14    1
     7    14    15    1
     8    15    16   am
     9    16    17    2
    10    16     1    1
    11     1     2   ar
    12     2     3   ar
    13     3     4   ar
    14     4     5   ar
    15     5     6   ar
    16     6     7   ar
    17     7     8    1
    18     7     9   ar
    19     9    10   ar
    20    10    11   ar
    21    11    24    1
    22    24    25   ar
    23    25    26   ar
    24    26    27   ar
    25    27    30    1
    26    30    33    1
    27    33    34    3
    28    30    31    1
    29    31    32    1
    30    27    28   ar
    31    28    29   ar
    32    15    18    1
    33    18    19    1
    34    19    12    1
    35    11     1   ar
    36    29    24   ar
    37    10     4   ar
    38    32    30    1
@<TRIPOS>MOLECULE
*****
 34 38 0 0 0
SMALL
GASTEIGER

@<TRIPOS>ATOM
      1 C          62.5300   88.8117   11.5416 C.ar    1  UNL1        0.0727
      2 C          62.2128   90.1983   11.0655 C.ar    1  UNL1        0.1033
      3 N          61.3156   90.3973    9.8801 N.ar    1  UNL1       -0.2437
      4 C          60.7355   89.2097    9.1707 C.ar    1  UNL1        0.0815
      5 C          59.8383   89.4087    7.9852 C.ar    1  UNL1        0.0214
      6 C          59.2582   88.2212    7.2759 C.ar    1  UNL1        0.0312
      7 C          59.5755   86.8345    7.7521 C.ar    1  UNL1        0.1402
      8 F          58.9954   85.6469    7.0427 F       1  UNL1       -0.2042
      9 C          60.4727   86.6355    8.9375 C.ar    1  UNL1        0.0311
     10 C          61.0527   87.8231    9.6468 C.ar    1  UNL1        0.0201
     11 C          61.9500   87.6241   10.8323 C.ar    1  UNL1        0.0074
     12 N          66.0123   91.9952   14.1854 N.3     1  UNL1       -0.1559
     13 C          66.0479   90.6687   14.8848 C.3     1  UNL1        0.1169
     14 C          65.1862   89.5411   14.3986 C.3     1  UNL1        0.1129
     15 N          64.2890   89.7402   13.2132 N.am    1  UNL1       -0.2731
     16 C          63.4273   88.6127   12.7271 C.2     1  UNL1        0.2506
     17 O          63.4629   87.2862   13.4265 O.2     1  UNL1       -0.2699
     18 C          64.2534   91.0667   12.5138 C.3     1  UNL1        0.1129
     19 C          65.1150   92.1942   12.9999 C.3     1  UNL1        0.1169
     20 C          67.7356   94.2501   15.1576 C.3     1  UNL1        0.1960
     21 S          66.8739   93.1227   14.6715 S.O2    1  UNL1        0.0458
     22 O          66.5287   92.7753   16.0893 O.2     1  UNL1       -0.1572
     23 O          67.2192   93.4700   13.2537 O.2     1  UNL1       -0.1572
     24 C          62.2672   86.2375   11.3084 C.ar    1  UNL1        0.0002
     25 C          63.0972   85.3235   10.4565 C.ar    1  UNL1       -0.0003
     26 C          63.4144   83.9369   10.9326 C.ar    1  UNL1       -0.0033
     27 C          62.9016   83.4643   12.2607 C.ar    1  UNL1       -0.0097
     28 C          62.0717   84.3783   13.1126 C.ar    1  UNL1       -0.0033
     29 C          61.7545   85.7649   12.6365 C.ar    1  UNL1       -0.0003
     30 C          63.2188   82.0777   12.7368 C.3     1  UNL1        0.0981
     31 C          63.3405   80.5827   12.7424 C.3     1  UNL1        0.0196
     32 C          62.7660   81.2838   11.5474 C.3     1  UNL1        0.0196
     33 C          63.7819   82.3899   14.0916 C.1     1  UNL1        0.0752
     34 N          64.3449   82.7022   15.4464 N.1     1  UNL1       -0.1956
@<TRIPOS>BOND
     1    20    21    1
     2    21    22    2
     3    21    23    2
     4    21    12    1
     5    12    13    1
     6    13    14    1
     7    14    15    1
     8    15    16   am
     9    16    17    2
    10    16     1    1
    11     1     2   ar
    12     2     3   ar
    13     3     4   ar
    14     4     5   ar
    15     5     6   ar
    16     6     7   ar
    17     7     8    1
    18     7     9   ar
    19     9    10   ar
    20    10    11   ar
    21    11    24    1
    22    24    25   ar
    23    25    26   ar
    24    26    27   ar
    25    27    30    1
    26    30    33    1
    27    33    34    3
    28    30    31    1
    29    31    32    1
    30    27    28   ar
    31    28    29   ar
    32    15    18    1
    33    18    19    1
    34    19    12    1
    35    11     1   ar
    36    29    24   ar
    37    10     4   ar
    38    32    30    1
@<TRIPOS>MOLECULE
*****
 34 38 0 0 0
SMALL
GASTEIGER

@<TRIPOS>ATOM
      1 C          64.2012   84.8229   13.3810 C.ar    1  UNL1        0.0727
      2 C          64.7865   85.0272   14.7470 C.ar    1  UNL1        0.1033
      3 N          64.8130   86.3985   15.3541 N.ar    1  UNL1       -0.2437
      4 C          64.2542   87.5656   14.5954 C.ar    1  UNL1        0.0815
      5 C          64.2807   88.9369   15.2026 C.ar    1  UNL1        0.0214
      6 C          63.7219   90.1040   14.4438 C.ar    1  UNL1        0.0312
      7 C          63.1366   89.8997   13.0779 C.ar    1  UNL1        0.1402
      8 F          62.5777   91.0668   12.3192 F       1  UNL1       -0.2042
      9 C          63.1101   88.5283   12.4707 C.ar    1  UNL1        0.0311
     10 C          63.6689   87.3613   13.2295 C.ar    1  UNL1        0.0201
     11 C          63.6424   85.9899   12.6223 C.ar    1  UNL1        0.0074
     12 N          60.9121   80.5597   13.8887 N.3     1  UNL1       -0.1559
     13 C          61.9732   80.1523   12.9099 C.3     1  UNL1        0.1169
     14 C          63.0608   81.1162   12.5383 C.3     1  UNL1        0.1129
     15 N          63.0872   82.4876   13.1455 N.am    1  UNL1       -0.2731
     16 C          64.1748   83.4514   12.7739 C.2     1  UNL1        0.2506
     17 O          65.2359   83.0440   11.7951 O.2     1  UNL1       -0.2699
     18 C          62.0261   82.8950   14.1243 C.3     1  UNL1        0.1129
     19 C          60.9386   81.9311   14.4959 C.3     1  UNL1        0.1169
     20 C          58.7370   78.6320   14.6319 C.3     1  UNL1        0.1960
     21 S          59.8246   79.5958   14.2603 S.O2    1  UNL1        0.0458
     22 O          60.8077   78.4644   14.2029 O.2     1  UNL1       -0.1572
     23 O          58.8415   80.7272   14.3178 O.2     1  UNL1       -0.1572
     24 C          63.0572   85.7856   11.2564 C.ar    1  UNL1        0.0002
     25 C          63.8126   84.9985   10.2268 C.ar    1  UNL1       -0.0003
     26 C          63.2273   84.7942    8.8609 C.ar    1  UNL1       -0.0033
     27 C          61.8866   85.3770    8.5246 C.ar    1  UNL1       -0.0097
     28 C          61.1313   86.1640    9.5542 C.ar    1  UNL1       -0.0033
     29 C          61.7165   86.3683   10.9201 C.ar    1  UNL1       -0.0003
     30 C          61.3013   85.1727    7.1587 C.3     1  UNL1        0.0981
     31 C          61.1707   84.7211    5.7343 C.3     1  UNL1        0.0196
     32 C          62.4073   84.3896    6.5158 C.3     1  UNL1        0.0196
     33 C          59.9919   85.8849    7.3272 C.1     1  UNL1        0.0752
     34 N          58.6826   86.5970    7.4957 N.1     1  UNL1       -0.1956
@<TRIPOS>BOND
     1    20    21    1
     2    21    22    2
     3    21    23    2
     4    21    12    1
     5    12    13    1
     6    13    14    1
     7    14    15    1
     8    15    16   am
     9    16    17    2
    10    16     1    1
    11     1     2   ar
    12     2     3   ar
    13     3     4   ar
    14     4     5   ar
    15     5     6   ar
    16     6     7   ar
    17     7     8    1
    18     7     9   ar
    19     9    10   ar
    20    10    11   ar
    21    11    24    1
    22    24    25   ar
    23    25    26   ar
    24    26    27   ar
    25    27    30    1
    26    30    33    1
    27    33    34    3
    28    30    31    1
    29    31    32    1
    30    27    28   ar
    31    28    29   ar
    32    15    18    1
    33    18    19    1
    34    19    12    1
    35    11     1   ar
    36    29    24   ar
    37    10     4   ar
    38    32    30    1
