@<TRIPOS>MOLECULE
*****
 34 37 0 0 0
SMALL
GASTEIGER

@<TRIPOS>ATOM
      1 C          64.2747   90.5362   14.8675 C.ar    1  UNL1        0.0503
      2 C          63.5540   90.4186   16.1778 C.ar    1  UNL1        0.0143
      3 C          63.2265   89.0649   16.7348 C.ar    1  UNL1       -0.0029
      4 C          63.6196   87.8288   15.9813 C.ar    1  UNL1       -0.0208
      5 C          64.3402   87.9464   14.6710 C.ar    1  UNL1       -0.0029
      6 C          64.6677   89.3001   14.1141 C.ar    1  UNL1        0.0143
      7 O          67.1321   91.4316   14.6845 O.2     1  UNL1       -0.2726
      8 C          66.0309   92.3377   14.2191 C.2     1  UNL1        0.2511
      9 N          64.6022   91.8899   14.3106 N.am    1  UNL1       -0.2823
     10 H          63.8795   92.4846   14.0051 H       1  UNL1        0.1549
     11 C          66.3584   93.6914   13.6622 C.3     1  UNL1        0.2154
     12 N          66.6751   93.8460   12.2041 N.ar    1  UNL1       -0.2071
     13 N          67.1952   92.6768   11.4215 N.ar    1  UNL1       -0.1648
     14 C          67.5119   92.8315    9.9635 C.ar    1  UNL1        0.1204
     15 C          67.3083   94.1552    9.2881 C.ar    1  UNL1        0.0274
     16 C          66.7881   95.3244   10.0707 C.ar    1  UNL1        0.0639
     17 C          66.4715   95.1697   11.5287 C.ar    1  UNL1        0.2769
     18 O          65.9513   96.3389   12.3113 O.2     1  UNL1       -0.2655
     19 C          63.2920   86.4750   16.5382 C.3     1  UNL1        0.0420
     20 C          63.1145   85.3068   15.6142 C.3     1  UNL1        0.0585
     21 C          62.4958   83.9874   15.9699 C.3     1  UNL1        0.0175
     22 C          62.5233   83.1181   14.7478 C.3     1  UNL1        0.0199
     23 C          63.1590   83.9002   13.6368 C.3     1  UNL1        0.0855
     24 N          63.5243   85.2529   14.1723 N.3     1  UNL1       -0.2971
     25 H          63.0353   85.9771   13.6461 H       1  UNL1        0.1233
     26 C          63.3890   83.4149   12.2363 C.3     1  UNL1        0.1470
     27 O          64.0310   82.0798   12.0011 O.3     1  UNL1       -0.3787
     28 H          64.1053   81.9203   11.0472 H       1  UNL1        0.2108
     29 C          62.9770   84.2646   11.0708 C.ar    1  UNL1        0.0055
     30 C          63.6017   84.0452    9.7249 C.ar    1  UNL1       -0.0019
     31 C          63.1898   84.8948    8.5594 C.ar    1  UNL1       -0.0002
     32 C          62.1532   85.9639    8.7398 C.ar    1  UNL1       -0.0000
     33 C          61.5285   86.1832   10.0857 C.ar    1  UNL1       -0.0002
     34 C          61.9404   85.3336   11.2512 C.ar    1  UNL1       -0.0019
@<TRIPOS>BOND
     1     7     8    2
     2     8    11    1
     3    11    12    1
     4    12    13   ar
     5    13    14   ar
     6    14    15   ar
     7    15    16   ar
     8    16    17   ar
     9    17    18    2
    10     8     9   am
    11     9     1    1
    12     1     2   ar
    13     2     3   ar
    14     3     4   ar
    15     4    19    1
    16    20    19    1
    17    20    21    1
    18    21    22    1
    19    23    22    1
    20    23    26    1
    21    26    27    1
    22    26    29    1
    23    29    30   ar
    24    30    31   ar
    25    31    32   ar
    26    32    33   ar
    27    33    34   ar
    28    23    24    1
    29     4     5   ar
    30     5     6   ar
    31    17    12   ar
    32     6     1   ar
    33    24    20    1
    34    34    29   ar
    35     9    10    1
    36    27    28    1
    37    24    25    1
@<TRIPOS>MOLECULE
*****
 34 37 0 0 0
SMALL
GASTEIGER

@<TRIPOS>ATOM
      1 C          63.6869   91.3585   11.1192 C.ar    1  UNL1        0.0503
      2 C          62.8586   91.0972    9.8961 C.ar    1  UNL1        0.0143
      3 C          62.0572   89.8337    9.7889 C.ar    1  UNL1       -0.0029
      4 C          62.0841   88.8316   10.9048 C.ar    1  UNL1       -0.0208
      5 C          62.9124   89.0929   12.1278 C.ar    1  UNL1       -0.0029
      6 C          63.7137   90.3564   12.2350 C.ar    1  UNL1        0.0143
      7 O          65.8614   91.5858   13.1734 O.2     1  UNL1       -0.2726
      8 C          65.5755   92.7356   12.2534 C.2     1  UNL1        0.2511
      9 N          64.4883   92.6219   11.2264 N.am    1  UNL1       -0.2823
     10 H          64.3006   93.3766   10.6226 H       1  UNL1        0.1549
     11 C          66.3769   93.9990   12.3606 C.3     1  UNL1        0.2154
     12 N          66.8239   94.7113   11.1184 N.ar    1  UNL1       -0.2071
     13 N          67.6707   93.9964   10.1076 N.ar    1  UNL1       -0.1648
     14 C          68.1176   94.7087    8.8655 C.ar    1  UNL1        0.1204
     15 C          67.7179   96.1358    8.6342 C.ar    1  UNL1        0.0274
     16 C          66.8712   96.8507    9.6451 C.ar    1  UNL1        0.0639
     17 C          66.4242   96.1384   10.8872 C.ar    1  UNL1        0.2769
     18 O          65.5774   96.8533   11.8982 O.2     1  UNL1       -0.2655
     19 C          61.2827   87.5681   10.7976 C.3     1  UNL1        0.0420
     20 C          61.9410   86.2986   10.3445 C.3     1  UNL1        0.0585
     21 C          62.1843   85.8910    8.9216 C.3     1  UNL1        0.0175
     22 C          62.8651   84.5544    8.9324 C.3     1  UNL1        0.0199
     23 C          63.0425   84.1361   10.3620 C.3     1  UNL1        0.0855
     24 N          62.4713   85.2141   11.2347 N.3     1  UNL1       -0.2971
     25 H          63.1995   85.5899   11.8420 H       1  UNL1        0.1233
     26 C          63.6792   82.8633   10.8357 C.3     1  UNL1        0.1470
     27 O          64.9193   82.3504   10.1655 O.3     1  UNL1       -0.3787
     28 H          65.1984   81.5243   10.5905 H       1  UNL1        0.2108
     29 C          63.0759   82.1032   11.9795 C.ar    1  UNL1        0.0055
     30 C          62.8518   80.6247   11.8622 C.ar    1  UNL1       -0.0019
     31 C          62.2485   79.8645   13.0060 C.ar    1  UNL1       -0.0002
     32 C          61.8693   80.5829   14.2670 C.ar    1  UNL1       -0.0000
     33 C          62.0934   82.0613   14.3842 C.ar    1  UNL1       -0.0002
     34 C          62.6967   82.8215   13.2405 C.ar    1  UNL1       -0.0019
@<TRIPOS>BOND
     1     7     8    2
     2     8    11    1
     3    11    12    1
     4    12    13   ar
     5    13    14   ar
     6    14    15   ar
     7    15    16   ar
     8    16    17   ar
     9    17    18    2
    10     8     9   am
    11     9     1    1
    12     1     2   ar
    13     2     3   ar
    14     3     4   ar
    15     4    19    1
    16    20    19    1
    17    20    21    1
    18    21    22    1
    19    23    22    1
    20    23    26    1
    21    26    27    1
    22    26    29    1
    23    29    30   ar
    24    30    31   ar
    25    31    32   ar
    26    32    33   ar
    27    33    34   ar
    28    23    24    1
    29     4     5   ar
    30     5     6   ar
    31    17    12   ar
    32     6     1   ar
    33    24    20    1
    34    34    29   ar
    35     9    10    1
    36    27    28    1
    37    24    25    1
@<TRIPOS>MOLECULE
*****
 34 37 0 0 0
SMALL
GASTEIGER

@<TRIPOS>ATOM
      1 C          63.5445   86.9674   15.4439 C.ar    1  UNL1        0.0503
      2 C          63.0521   87.6547   16.6830 C.ar    1  UNL1        0.0143
      3 C          63.2717   89.1278   16.8612 C.ar    1  UNL1       -0.0029
      4 C          63.9838   89.9136   15.8003 C.ar    1  UNL1       -0.0208
      5 C          64.4761   89.2264   14.5612 C.ar    1  UNL1       -0.0029
      6 C          64.2564   87.7533   14.3830 C.ar    1  UNL1        0.0143
      7 O          65.8246   85.1995   14.6220 O.2     1  UNL1       -0.2726
      8 C          64.4648   84.6104   14.8548 C.2     1  UNL1        0.2511
      9 N          63.3248   85.4944   15.2657 N.am    1  UNL1       -0.2823
     10 H          62.4324   85.1077   15.4184 H       1  UNL1        0.1549
     11 C          64.2451   83.1373   14.6766 C.3     1  UNL1        0.2154
     12 N          63.9290   82.5851   13.3182 N.ar    1  UNL1       -0.2071
     13 N          64.3368   83.3402   12.0880 N.ar    1  UNL1       -0.1648
     14 C          64.0207   82.7880   10.7297 C.ar    1  UNL1        0.1204
     15 C          63.2967   81.4806   10.6016 C.ar    1  UNL1        0.0274
     16 C          62.8888   80.7254   11.8317 C.ar    1  UNL1        0.0639
     17 C          63.2050   81.2776   13.1900 C.ar    1  UNL1        0.2769
     18 O          62.7971   80.5224   14.4203 O.2     1  UNL1       -0.2655
     19 C          64.2034   91.3867   15.9785 C.3     1  UNL1        0.0420
     20 C          65.2031   92.1051   15.1212 C.3     1  UNL1        0.0585
     21 C          66.6777   92.2011   15.3786 C.3     1  UNL1        0.0175
     22 C          67.2896   93.0088   14.2725 C.3     1  UNL1        0.0199
     23 C          66.1930   93.4120   13.3317 C.3     1  UNL1        0.0855
     24 N          64.9035   92.8534   13.8563 N.3     1  UNL1       -0.2971
     25 H          64.4951   92.2208   13.1683 H       1  UNL1        0.1233
     26 C          66.3572   94.2301   12.0853 C.3     1  UNL1        0.1470
     27 O          65.7851   95.6149   12.0163 O.3     1  UNL1       -0.3787
     28 H          65.9787   96.0019   11.1482 H       1  UNL1        0.2108
     29 C          67.0935   93.6634   10.9077 C.ar    1  UNL1        0.0055
     30 C          67.5824   92.2456   10.9404 C.ar    1  UNL1       -0.0019
     31 C          68.3187   91.6789    9.7628 C.ar    1  UNL1       -0.0002
     32 C          68.5661   92.5298    8.5526 C.ar    1  UNL1       -0.0000
     33 C          68.0772   93.9475    8.5200 C.ar    1  UNL1       -0.0002
     34 C          67.3409   94.5143    9.6975 C.ar    1  UNL1       -0.0019
@<TRIPOS>BOND
     1     7     8    2
     2     8    11    1
     3    11    12    1
     4    12    13   ar
     5    13    14   ar
     6    14    15   ar
     7    15    16   ar
     8    16    17   ar
     9    17    18    2
    10     8     9   am
    11     9     1    1
    12     1     2   ar
    13     2     3   ar
    14     3     4   ar
    15     4    19    1
    16    20    19    1
    17    20    21    1
    18    21    22    1
    19    23    22    1
    20    23    26    1
    21    26    27    1
    22    26    29    1
    23    29    30   ar
    24    30    31   ar
    25    31    32   ar
    26    32    33   ar
    27    33    34   ar
    28    23    24    1
    29     4     5   ar
    30     5     6   ar
    31    17    12   ar
    32     6     1   ar
    33    24    20    1
    34    34    29   ar
    35     9    10    1
    36    27    28    1
    37    24    25    1
@<TRIPOS>MOLECULE
*****
 34 37 0 0 0
SMALL
GASTEIGER

@<TRIPOS>ATOM
      1 C          63.5007   90.7509   12.1237 C.ar    1  UNL1        0.0503
      2 C          63.4456   89.3345   12.6145 C.ar    1  UNL1        0.0143
      3 C          62.7465   88.2857   11.8014 C.ar    1  UNL1       -0.0029
      4 C          62.1024   88.6532   10.4975 C.ar    1  UNL1       -0.0208
      5 C          62.1575   90.0696   10.0067 C.ar    1  UNL1       -0.0029
      6 C          62.8566   91.1184   10.8198 C.ar    1  UNL1        0.0143
      7 O          65.9024   92.1604   11.0077 O.2     1  UNL1       -0.2726
      8 C          65.4006   92.5045   12.3788 C.2     1  UNL1        0.2511
      9 N          64.1998   91.7998   12.9368 N.am    1  UNL1       -0.2823
     10 H          63.8705   92.0256   13.8367 H       1  UNL1        0.1549
     11 C          66.0997   93.5533   13.1920 C.3     1  UNL1        0.2154
     12 N          67.0244   93.1492   14.3018 N.ar    1  UNL1       -0.2071
     13 N          68.5090   93.1827   14.0908 N.ar    1  UNL1       -0.1648
     14 C          69.4336   92.7786   15.2007 C.ar    1  UNL1        0.1204
     15 C          68.8734   92.3409   16.5216 C.ar    1  UNL1        0.0274
     16 C          67.3888   92.3073   16.7326 C.ar    1  UNL1        0.0639
     17 C          66.4642   92.7115   15.6227 C.ar    1  UNL1        0.2769
     18 O          64.9795   92.6779   15.8337 O.2     1  UNL1       -0.2655
     19 C          61.4033   87.6044    9.6844 C.3     1  UNL1        0.0420
     20 C          62.0554   86.2726    9.4579 C.3     1  UNL1        0.0585
     21 C          62.3473   85.6492    8.1252 C.3     1  UNL1        0.0175
     22 C          63.0025   84.3217    8.3680 C.3     1  UNL1        0.0199
     23 C          63.1155   84.1249    9.8508 C.3     1  UNL1        0.0855
     24 N          62.5302   85.3306   10.5243 N.3     1  UNL1       -0.2971
     25 H          63.2406   85.7861   11.0972 H       1  UNL1        0.1233
     26 C          63.7094   82.9320   10.5390 C.3     1  UNL1        0.1470
     27 O          64.9078   82.2470    9.9520 O.3     1  UNL1       -0.3787
     28 H          65.1625   81.5005   10.5167 H       1  UNL1        0.2108
     29 C          63.1051   82.4238   11.8144 C.ar    1  UNL1        0.0055
     30 C          62.7275   80.9777   11.9413 C.ar    1  UNL1       -0.0019
     31 C          62.1232   80.4694   13.2166 C.ar    1  UNL1       -0.0002
     32 C          61.8965   81.4073   14.3651 C.ar    1  UNL1       -0.0000
     33 C          62.2741   82.8534   14.2382 C.ar    1  UNL1       -0.0002
     34 C          62.8784   83.3616   12.9628 C.ar    1  UNL1       -0.0019
@<TRIPOS>BOND
     1     7     8    2
     2     8    11    1
     3    11    12    1
     4    12    13   ar
     5    13    14   ar
     6    14    15   ar
     7    15    16   ar
     8    16    17   ar
     9    17    18    2
    10     8     9   am
    11     9     1    1
    12     1     2   ar
    13     2     3   ar
    14     3     4   ar
    15     4    19    1
    16    20    19    1
    17    20    21    1
    18    21    22    1
    19    23    22    1
    20    23    26    1
    21    26    27    1
    22    26    29    1
    23    29    30   ar
    24    30    31   ar
    25    31    32   ar
    26    32    33   ar
    27    33    34   ar
    28    23    24    1
    29     4     5   ar
    30     5     6   ar
    31    17    12   ar
    32     6     1   ar
    33    24    20    1
    34    34    29   ar
    35     9    10    1
    36    27    28    1
    37    24    25    1
@<TRIPOS>MOLECULE
*****
 34 37 0 0 0
SMALL
GASTEIGER

@<TRIPOS>ATOM
      1 C          64.3315   90.4323   15.0444 C.ar    1  UNL1        0.0503
      2 C          64.7656   89.2062   14.2970 C.ar    1  UNL1        0.0143
      3 C          64.3994   87.8456   14.8114 C.ar    1  UNL1       -0.0029
      4 C          63.5992   87.7110   16.0730 C.ar    1  UNL1       -0.0208
      5 C          63.1652   88.9371   16.8203 C.ar    1  UNL1       -0.0029
      6 C          63.5314   90.2977   16.3059 C.ar    1  UNL1        0.0143
      7 O          67.2059   91.2893   14.9833 O.2     1  UNL1       -0.2726
      8 C          66.1348   92.2215   14.4995 C.2     1  UNL1        0.2511
      9 N          64.6977   91.7930   14.5300 N.am    1  UNL1       -0.2823
     10 H          63.9948   92.4048   14.2125 H       1  UNL1        0.1549
     11 C          66.5010   93.5821   13.9852 C.3     1  UNL1        0.2154
     12 N          66.5307   93.8427   12.5082 N.ar    1  UNL1       -0.2071
     13 N          65.7873   95.0141   11.9382 N.ar    1  UNL1       -0.1648
     14 C          65.8170   95.2746   10.4613 C.ar    1  UNL1        0.1204
     15 C          66.5901   94.3636    9.5545 C.ar    1  UNL1        0.0274
     16 C          67.3335   93.1922   10.1245 C.ar    1  UNL1        0.0639
     17 C          67.3038   92.9317   11.6013 C.ar    1  UNL1        0.2769
     18 O          68.0472   91.7602   12.1714 O.2     1  UNL1       -0.2655
     19 C          63.2330   86.3504   16.5873 C.3     1  UNL1        0.0420
     20 C          63.0325   85.2148   15.6279 C.3     1  UNL1        0.0585
     21 C          62.4124   83.8876   15.9500 C.3     1  UNL1        0.0175
     22 C          62.4136   83.0596   14.6991 C.3     1  UNL1        0.0199
     23 C          63.0345   83.8753   13.6040 C.3     1  UNL1        0.0855
     24 N          63.4170   85.2073   14.1780 N.3     1  UNL1       -0.2971
     25 H          62.9232   85.9513   13.6851 H       1  UNL1        0.1233
     26 C          63.2372   83.4361   12.1842 C.3     1  UNL1        0.1470
     27 O          63.8049   82.0786   11.8928 O.3     1  UNL1       -0.3787
     28 H          63.8702   81.9547   10.9330 H       1  UNL1        0.2108
     29 C          62.8723   84.3544   11.0556 C.ar    1  UNL1        0.0055
     30 C          61.8527   85.4340   11.2670 C.ar    1  UNL1       -0.0019
     31 C          61.4877   86.3523   10.1385 C.ar    1  UNL1       -0.0002
     32 C          62.1424   86.1909    8.7986 C.ar    1  UNL1       -0.0000
     33 C          63.1619   85.1113    8.5872 C.ar    1  UNL1       -0.0002
     34 C          63.5269   84.1930    9.7158 C.ar    1  UNL1       -0.0019
@<TRIPOS>BOND
     1     7     8    2
     2     8    11    1
     3    11    12    1
     4    12    13   ar
     5    13    14   ar
     6    14    15   ar
     7    15    16   ar
     8    16    17   ar
     9    17    18    2
    10     8     9   am
    11     9     1    1
    12     1     2   ar
    13     2     3   ar
    14     3     4   ar
    15     4    19    1
    16    20    19    1
    17    20    21    1
    18    21    22    1
    19    23    22    1
    20    23    26    1
    21    26    27    1
    22    26    29    1
    23    29    30   ar
    24    30    31   ar
    25    31    32   ar
    26    32    33   ar
    27    33    34   ar
    28    23    24    1
    29     4     5   ar
    30     5     6   ar
    31    17    12   ar
    32     6     1   ar
    33    24    20    1
    34    34    29   ar
    35     9    10    1
    36    27    28    1
    37    24    25    1
@<TRIPOS>MOLECULE
*****
 34 37 0 0 0
SMALL
GASTEIGER

@<TRIPOS>ATOM
      1 C          61.3380   89.4939    9.7649 C.ar    1  UNL1        0.0503
      2 C          61.6956   90.6252   10.6827 C.ar    1  UNL1        0.0143
      3 C          62.5646   90.3740   11.8794 C.ar    1  UNL1       -0.0029
      4 C          63.0758   88.9916   12.1581 C.ar    1  UNL1       -0.0208
      5 C          62.7182   87.8604   11.2403 C.ar    1  UNL1       -0.0029
      6 C          61.8493   88.1116   10.0437 C.ar    1  UNL1        0.0143
      7 O          59.5274   87.3300    8.7452 O.2     1  UNL1       -0.2726
      8 C          59.5638   88.6631    8.0584 C.2     1  UNL1        0.2511
      9 N          60.4691   89.7450    8.5683 N.am    1  UNL1       -0.2823
     10 H          60.4930   90.6199    8.1175 H       1  UNL1        0.1549
     11 C          58.6949   88.9143    6.8618 C.3     1  UNL1        0.2154
     12 N          59.0035   90.0541    5.9368 N.ar    1  UNL1       -0.2071
     13 N          60.4265   90.3651    5.5785 N.ar    1  UNL1       -0.1648
     14 C          60.7350   91.5049    4.6535 C.ar    1  UNL1        0.1204
     15 C          59.6206   92.3337    4.0868 C.ar    1  UNL1        0.0274
     16 C          58.1976   92.0227    4.4451 C.ar    1  UNL1        0.0639
     17 C          57.8891   90.8829    5.3700 C.ar    1  UNL1        0.2769
     18 O          56.4660   90.5718    5.7284 O.2     1  UNL1       -0.2655
     19 C          63.9448   88.7405   13.3547 C.3     1  UNL1        0.0420
     20 C          63.8542   87.4342   14.0865 C.3     1  UNL1        0.0585
     21 C          64.0979   87.2258   15.5518 C.3     1  UNL1        0.0175
     22 C          63.8984   85.7697   15.8524 C.3     1  UNL1        0.0199
     23 C          63.5314   85.0783   14.5727 C.3     1  UNL1        0.0855
     24 N          63.5042   86.1070   13.4814 N.3     1  UNL1       -0.2971
     25 H          62.5722   86.1496   13.0691 H       1  UNL1        0.1233
     26 C          63.2425   83.6152   14.4126 C.3     1  UNL1        0.1470
     27 O          62.8105   82.8021   15.5967 O.3     1  UNL1       -0.3787
     28 H          62.6661   81.8829   15.3224 H       1  UNL1        0.2108
     29 C          63.3856   82.9651   13.0683 C.ar    1  UNL1        0.0055
     30 C          62.6834   81.6708   12.7828 C.ar    1  UNL1       -0.0019
     31 C          62.8264   81.0206   11.4386 C.ar    1  UNL1       -0.0002
     32 C          63.6715   81.6649   10.3800 C.ar    1  UNL1       -0.0000
     33 C          64.3736   82.9592   10.6656 C.ar    1  UNL1       -0.0002
     34 C          64.2307   83.6093   12.0097 C.ar    1  UNL1       -0.0019
@<TRIPOS>BOND
     1     7     8    2
     2     8    11    1
     3    11    12    1
     4    12    13   ar
     5    13    14   ar
     6    14    15   ar
     7    15    16   ar
     8    16    17   ar
     9    17    18    2
    10     8     9   am
    11     9     1    1
    12     1     2   ar
    13     2     3   ar
    14     3     4   ar
    15     4    19    1
    16    20    19    1
    17    20    21    1
    18    21    22    1
    19    23    22    1
    20    23    26    1
    21    26    27    1
    22    26    29    1
    23    29    30   ar
    24    30    31   ar
    25    31    32   ar
    26    32    33   ar
    27    33    34   ar
    28    23    24    1
    29     4     5   ar
    30     5     6   ar
    31    17    12   ar
    32     6     1   ar
    33    24    20    1
    34    34    29   ar
    35     9    10    1
    36    27    28    1
    37    24    25    1
@<TRIPOS>MOLECULE
*****
 34 37 0 0 0
SMALL
GASTEIGER

@<TRIPOS>ATOM
      1 C          63.5217   86.8233   15.5493 C.ar    1  UNL1        0.0503
      2 C          63.0843   87.6852   16.6965 C.ar    1  UNL1        0.0143
      3 C          63.2824   89.1709   16.6366 C.ar    1  UNL1       -0.0029
      4 C          63.9179   89.7947   15.4294 C.ar    1  UNL1       -0.0208
      5 C          64.3552   88.9328   14.2823 C.ar    1  UNL1       -0.0029
      6 C          64.1571   87.4471   14.3422 C.ar    1  UNL1        0.0143
      7 O          65.7485   84.9796   14.7482 O.2     1  UNL1       -0.2726
      8 C          64.4369   84.4158   15.2087 C.2     1  UNL1        0.2511
      9 N          63.3235   85.3377   15.6093 N.am    1  UNL1       -0.2823
     10 H          62.4627   84.9677   15.9115 H       1  UNL1        0.1549
     11 C          64.2388   82.9302   15.2687 C.3     1  UNL1        0.2154
     12 N          63.6804   82.1996   14.0836 N.ar    1  UNL1       -0.2071
     13 N          62.9867   80.8832   14.2727 N.ar    1  UNL1       -0.1648
     14 C          62.4283   80.1526   13.0876 C.ar    1  UNL1        0.1204
     15 C          62.5636   80.7385   11.7134 C.ar    1  UNL1        0.0274
     16 C          63.2573   82.0549   11.5243 C.ar    1  UNL1        0.0639
     17 C          63.8157   82.7855   12.7094 C.ar    1  UNL1        0.2769
     18 O          64.5094   84.1019   12.5203 O.2     1  UNL1       -0.2655
     19 C          64.1160   91.2803   15.3694 C.3     1  UNL1        0.0420
     20 C          65.2904   91.8511   14.6311 C.3     1  UNL1        0.0585
     21 C          66.5375   92.4063   15.2529 C.3     1  UNL1        0.0175
     22 C          67.4417   92.8653   14.1475 C.3     1  UNL1        0.0199
     23 C          66.7534   92.5938   12.8427 C.3     1  UNL1        0.0855
     24 N          65.4238   91.9671   13.1416 N.3     1  UNL1       -0.2971
     25 H          65.3742   91.0412   12.7165 H       1  UNL1        0.1233
     26 C          67.2988   92.8961   11.4785 C.3     1  UNL1        0.1470
     27 O          68.2653   91.9494   10.8306 O.3     1  UNL1       -0.3787
     28 H          68.5175   92.2914    9.9586 H       1  UNL1        0.2108
     29 C          66.8779   94.1449   10.7622 C.ar    1  UNL1        0.0055
     30 C          66.1125   95.2074   11.4938 C.ar    1  UNL1       -0.0019
     31 C          65.6916   96.4562   10.7776 C.ar    1  UNL1       -0.0002
     32 C          66.0360   96.6427    9.3296 C.ar    1  UNL1       -0.0000
     33 C          66.8014   95.5803    8.5980 C.ar    1  UNL1       -0.0002
     34 C          67.2224   94.3314    9.3143 C.ar    1  UNL1       -0.0019
@<TRIPOS>BOND
     1     7     8    2
     2     8    11    1
     3    11    12    1
     4    12    13   ar
     5    13    14   ar
     6    14    15   ar
     7    15    16   ar
     8    16    17   ar
     9    17    18    2
    10     8     9   am
    11     9     1    1
    12     1     2   ar
    13     2     3   ar
    14     3     4   ar
    15     4    19    1
    16    20    19    1
    17    20    21    1
    18    21    22    1
    19    23    22    1
    20    23    26    1
    21    26    27    1
    22    26    29    1
    23    29    30   ar
    24    30    31   ar
    25    31    32   ar
    26    32    33   ar
    27    33    34   ar
    28    23    24    1
    29     4     5   ar
    30     5     6   ar
    31    17    12   ar
    32     6     1   ar
    33    24    20    1
    34    34    29   ar
    35     9    10    1
    36    27    28    1
    37    24    25    1
@<TRIPOS>MOLECULE
*****
 34 37 0 0 0
SMALL
GASTEIGER

@<TRIPOS>ATOM
      1 C          60.8548   89.8600    9.9006 C.ar    1  UNL1        0.0503
      2 C          62.3140   89.5293   10.0084 C.ar    1  UNL1        0.0143
      3 C          62.9643   89.4365   11.3569 C.ar    1  UNL1       -0.0029
      4 C          62.1554   89.6744   12.5976 C.ar    1  UNL1       -0.0208
      5 C          60.6963   90.0051   12.4897 C.ar    1  UNL1       -0.0029
      6 C          60.0460   90.0979   11.1412 C.ar    1  UNL1        0.0143
      7 O          59.5104   87.4544    8.7148 O.2     1  UNL1       -0.2726
      8 C          59.5323   88.7501    7.9592 C.2     1  UNL1        0.2511
      9 N          60.2045   89.9528    8.5520 N.am    1  UNL1       -0.2823
     10 H          60.2189   90.8032    8.0561 H       1  UNL1        0.1549
     11 C          58.8821   88.8429    6.6106 C.3     1  UNL1        0.2154
     12 N          59.1024   90.0540    5.7535 N.ar    1  UNL1       -0.2071
     13 N          60.4923   90.4372    5.3397 N.ar    1  UNL1       -0.1648
     14 C          60.7126   91.6483    4.4826 C.ar    1  UNL1        0.1204
     15 C          59.5430   92.4762    4.0393 C.ar    1  UNL1        0.0274
     16 C          58.1531   92.0931    4.4531 C.ar    1  UNL1        0.0639
     17 C          57.9328   90.8820    5.3102 C.ar    1  UNL1        0.2769
     18 O          56.5428   90.4987    5.7240 O.2     1  UNL1       -0.2655
     19 C          62.8057   89.5816   13.9461 C.3     1  UNL1        0.0420
     20 C          63.9272   90.5114   14.3035 C.3     1  UNL1        0.0585
     21 C          64.2111   91.0669   15.6677 C.3     1  UNL1        0.0175
     22 C          65.4211   91.9478   15.5668 C.3     1  UNL1        0.0199
     23 C          65.8849   91.9367   14.1403 C.3     1  UNL1        0.0855
     24 N          64.9616   91.0490   13.3596 N.3     1  UNL1       -0.2971
     25 H          65.4882   90.2786   12.9478 H       1  UNL1        0.1233
     26 C          67.0647   92.6824   13.5911 C.3     1  UNL1        0.1470
     27 O          68.2021   93.0568   14.4944 O.3     1  UNL1       -0.3787
     28 H          68.8776   93.5307   13.9844 H       1  UNL1        0.2108
     29 C          67.1072   93.0539   12.1384 C.ar    1  UNL1        0.0055
     30 C          66.3257   94.2346   11.6431 C.ar    1  UNL1       -0.0019
     31 C          66.3682   94.6061   10.1905 C.ar    1  UNL1       -0.0002
     32 C          67.1922   93.7970    9.2331 C.ar    1  UNL1       -0.0000
     33 C          67.9736   92.6164    9.7285 C.ar    1  UNL1       -0.0002
     34 C          67.9311   92.2448   11.1811 C.ar    1  UNL1       -0.0019
@<TRIPOS>BOND
     1     7     8    2
     2     8    11    1
     3    11    12    1
     4    12    13   ar
     5    13    14   ar
     6    14    15   ar
     7    15    16   ar
     8    16    17   ar
     9    17    18    2
    10     8     9   am
    11     9     1    1
    12     1     2   ar
    13     2     3   ar
    14     3     4   ar
    15     4    19    1
    16    20    19    1
    17    20    21    1
    18    21    22    1
    19    23    22    1
    20    23    26    1
    21    26    27    1
    22    26    29    1
    23    29    30   ar
    24    30    31   ar
    25    31    32   ar
    26    32    33   ar
    27    33    34   ar
    28    23    24    1
    29     4     5   ar
    30     5     6   ar
    31    17    12   ar
    32     6     1   ar
    33    24    20    1
    34    34    29   ar
    35     9    10    1
    36    27    28    1
    37    24    25    1
@<TRIPOS>MOLECULE
*****
 34 37 0 0 0
SMALL
GASTEIGER

@<TRIPOS>ATOM
      1 C          64.1433   91.4829   11.0887 C.ar    1  UNL1        0.0503
      2 C          63.2793   90.8914   10.0146 C.ar    1  UNL1        0.0143
      3 C          62.5183   89.6256   10.2764 C.ar    1  UNL1       -0.0029
      4 C          62.6212   88.9513   11.6124 C.ar    1  UNL1       -0.0208
      5 C          63.4851   89.5428   12.6865 C.ar    1  UNL1       -0.0029
      6 C          64.2461   90.8086   12.4247 C.ar    1  UNL1        0.0143
      7 O          65.5986   92.8487   13.3286 O.2     1  UNL1       -0.2726
      8 C          65.6320   93.4316   11.9468 C.2     1  UNL1        0.2511
      9 N          64.9043   92.7487   10.8269 N.am    1  UNL1       -0.2823
     10 H          64.9263   93.1313    9.9201 H       1  UNL1        0.1549
     11 C          66.3930   94.6974   11.6850 C.3     1  UNL1        0.2154
     12 N          66.3438   95.3351   10.3281 N.ar    1  UNL1       -0.2071
     13 N          65.1895   96.2174    9.9556 N.ar    1  UNL1       -0.1648
     14 C          65.1403   96.8551    8.5988 C.ar    1  UNL1        0.1204
     15 C          66.2455   96.6104    7.6146 C.ar    1  UNL1        0.0274
     16 C          67.3998   95.7281    7.9871 C.ar    1  UNL1        0.0639
     17 C          67.4490   95.0904    9.3439 C.ar    1  UNL1        0.2769
     18 O          68.6034   94.2080    9.7166 O.2     1  UNL1       -0.2655
     19 C          61.8601   87.6855   11.8742 C.3     1  UNL1        0.0420
     20 C          62.5166   86.5538   12.6079 C.3     1  UNL1        0.0585
     21 C          63.7537   86.6494   13.4508 C.3     1  UNL1        0.0175
     22 C          64.0530   85.2825   13.9915 C.3     1  UNL1        0.0199
     23 C          63.0008   84.3422   13.4827 C.3     1  UNL1        0.0855
     24 N          62.0513   85.1279   12.6276 N.3     1  UNL1       -0.2971
     25 H          61.1103   85.0763   13.0178 H       1  UNL1        0.1233
     26 C          62.9134   82.8741   13.7772 C.3     1  UNL1        0.1470
     27 O          62.7759   82.4002   15.1937 O.3     1  UNL1       -0.3787
     28 H          62.7331   81.4313   15.2078 H       1  UNL1        0.2108
     29 C          62.9636   81.8797   12.6553 C.ar    1  UNL1        0.0055
     30 C          62.5584   80.4558   12.8967 C.ar    1  UNL1       -0.0019
     31 C          62.6086   79.4613   11.7749 C.ar    1  UNL1       -0.0002
     32 C          63.0640   79.8907   10.4117 C.ar    1  UNL1       -0.0000
     33 C          63.4691   81.3146   10.1704 C.ar    1  UNL1       -0.0002
     34 C          63.4189   82.3091   11.2922 C.ar    1  UNL1       -0.0019
@<TRIPOS>BOND
     1     7     8    2
     2     8    11    1
     3    11    12    1
     4    12    13   ar
     5    13    14   ar
     6    14    15   ar
     7    15    16   ar
     8    16    17   ar
     9    17    18    2
    10     8     9   am
    11     9     1    1
    12     1     2   ar
    13     2     3   ar
    14     3     4   ar
    15     4    19    1
    16    20    19    1
    17    20    21    1
    18    21    22    1
    19    23    22    1
    20    23    26    1
    21    26    27    1
    22    26    29    1
    23    29    30   ar
    24    30    31   ar
    25    31    32   ar
    26    32    33   ar
    27    33    34   ar
    28    23    24    1
    29     4     5   ar
    30     5     6   ar
    31    17    12   ar
    32     6     1   ar
    33    24    20    1
    34    34    29   ar
    35     9    10    1
    36    27    28    1
    37    24    25    1
