@<TRIPOS>MOLECULE
*****
 36 40 0 0 0
SMALL
GASTEIGER

@<TRIPOS>ATOM
      1 C          63.0100   89.8357   12.5385 C.ar    1  UNL1        0.0359
      2 S          63.5434   90.8052   11.5259 S.2     1  UNL1       -0.0718
      3 C          64.5221   91.7069   12.2181 C.ar    1  UNL1        0.0983
      4 C          64.5937   91.2946   13.6585 C.ar    1  UNL1        0.0830
      5 C          63.6591   90.1381   13.8565 C.ar    1  UNL1        0.0639
      6 C          65.5005   92.0255   14.6037 C.ar    1  UNL1        0.2663
      7 O          65.5720   91.6132   16.0441 O.2     1  UNL1       -0.2668
      8 N          66.3358   93.1687   14.1085 N.ar    1  UNL1       -0.2467
      9 C          67.2427   93.8996   15.0538 C.3     1  UNL1        0.1382
     10 C          66.2644   93.5810   12.6681 C.ar    1  UNL1        0.3342
     11 O          67.0997   94.7242   12.1728 O.2     1  UNL1       -0.2462
     12 N          65.3575   92.8502   11.7228 N.ar    1  UNL1       -0.2757
     13 C          63.4163   89.4116   15.1462 C.2     1  UNL1        0.2495
     14 O          62.8505   90.1458   16.3255 O.2     1  UNL1       -0.2699
     15 N          63.7393   87.9509   15.2565 N.am    1  UNL1       -0.2735
     16 C          64.3069   87.0888   14.1682 C.3     1  UNL1        0.0964
     17 C          64.4698   85.7010   14.7136 C.3     1  UNL1        0.0525
     18 C          64.0029   85.7054   16.1390 C.3     1  UNL1        0.1320
     19 O          63.9898   84.5264   17.0662 O.3     1  UNL1       -0.3827
     20 C          63.5515   87.0960   16.4746 C.3     1  UNL1        0.1228
     21 H          63.6409   84.7979   17.9296 H       1  UNL1        0.2104
     22 C          62.0042   88.7537   12.2787 C.3     1  UNL1        0.1405
     23 C          59.8427   90.9154   11.1366 C.3     1  UNL1        0.0719
     24 C          60.3094   89.6775   10.4296 C.ar    1  UNL1        0.1210
     25 N          59.8645   89.2158    9.0735 N.ar    1  UNL1       -0.2309
     26 C          60.5830   87.9369    8.7604 C.ar    1  UNL1        0.0983
     27 C          60.5426   87.0293    7.5669 C.ar    1  UNL1        0.0206
     28 C          61.3913   85.7928    7.5359 C.ar    1  UNL1        0.0016
     29 C          62.2803   85.4640    8.6985 C.ar    1  UNL1        0.0016
     30 C          62.3206   86.3717    9.8920 C.ar    1  UNL1        0.0188
     31 C          61.4720   87.6081    9.9229 C.ar    1  UNL1        0.0789
     32 N          61.3029   88.6838   10.9545 N.ar    1  UNL1       -0.3101
     33 C          65.2860   93.2625   10.2824 C.3     1  UNL1        0.1109
     34 C          66.5429   93.5942    9.5339 C.3     1  UNL1        0.0228
     35 C          67.6734   92.6092    9.4927 C.3     1  UNL1        0.0020
     36 C          66.6691   94.9109    8.8266 C.3     1  UNL1        0.0020
@<TRIPOS>BOND
     1    23    24    1
     2    24    25   ar
     3    25    26   ar
     4    26    27   ar
     5    27    28   ar
     6    28    29   ar
     7    29    30   ar
     8    30    31   ar
     9    31    32   ar
    10    32    22    1
    11    22     1    1
    12     1     2   ar
    13     2     3   ar
    14     3     4   ar
    15     4     5   ar
    16     5    13    1
    17    13    14    2
    18    13    15   am
    19    15    16    1
    20    16    17    1
    21    17    18    1
    22    18    19    1
    23    18    20    1
    24     4     6   ar
    25     6     7    2
    26     6     8   ar
    27     8     9    1
    28     8    10   ar
    29    10    11    2
    30    10    12   ar
    31    12    33    1
    32    33    34    1
    33    34    35    1
    34    34    36    1
    35    32    24   ar
    36     5     1   ar
    37    20    15    1
    38    31    26   ar
    39    12     3   ar
    40    19    21    1
@<TRIPOS>MOLECULE
*****
 36 40 0 0 0
SMALL
GASTEIGER

@<TRIPOS>ATOM
      1 C          63.3890   89.8369   12.8222 C.ar    1  UNL1        0.0359
      2 S          63.7509   88.9928   14.0080 S.2     1  UNL1       -0.0718
      3 C          63.5600   87.5542   13.6286 C.ar    1  UNL1        0.0983
      4 C          63.0800   87.5091   12.2083 C.ar    1  UNL1        0.0830
      5 C          62.9743   88.9200   11.7098 C.ar    1  UNL1        0.0639
      6 C          62.8012   86.1893   11.5522 C.ar    1  UNL1        0.2663
      7 O          62.3212   86.1444   10.1318 O.2     1  UNL1       -0.2668
      8 N          63.0024   84.9145   12.3166 N.ar    1  UNL1       -0.2467
      9 C          62.7235   83.5947   11.6606 C.3     1  UNL1        0.1382
     10 C          63.4823   84.9595   13.7370 C.ar    1  UNL1        0.3342
     11 O          63.6835   83.6847   14.5015 O.2     1  UNL1       -0.2462
     12 N          63.7611   86.2793   14.3931 N.ar    1  UNL1       -0.2757
     13 C          62.5317   89.3401   10.3396 C.2     1  UNL1        0.2495
     14 O          63.3856   90.2681    9.5273 O.2     1  UNL1       -0.2699
     15 N          61.2353   88.8323    9.7816 N.am    1  UNL1       -0.2735
     16 C          60.2812   87.9041   10.4730 C.3     1  UNL1        0.0964
     17 C          59.1215   87.6616    9.5530 C.3     1  UNL1        0.0525
     18 C          59.3589   88.4399    8.2929 C.3     1  UNL1        0.1320
     19 O          58.4497   88.4866    7.1009 O.3     1  UNL1       -0.3827
     20 C          60.6653   89.1634    8.4342 C.3     1  UNL1        0.1228
     21 H          58.8354   89.0626    6.4223 H       1  UNL1        0.2104
     22 C          63.4338   91.3349   12.7595 C.3     1  UNL1        0.1405
     23 C          65.0930   92.6394   10.2706 C.3     1  UNL1        0.0719
     24 C          65.5113   92.6501   11.7110 C.ar    1  UNL1        0.1210
     25 N          66.7657   93.2623   12.2603 N.ar    1  UNL1       -0.2309
     26 C          66.7784   93.0410   13.7438 C.ar    1  UNL1        0.0983
     27 C          67.7639   93.4247   14.8075 C.ar    1  UNL1        0.0206
     28 C          67.5029   93.0595   16.2387 C.ar    1  UNL1        0.0016
     29 C          66.2563   92.3106   16.6063 C.ar    1  UNL1        0.0016
     30 C          65.2708   91.9269   15.5427 C.ar    1  UNL1        0.0188
     31 C          65.5318   92.2921   14.1114 C.ar    1  UNL1        0.0789
     32 N          64.7487   92.0505   12.8551 N.ar    1  UNL1       -0.3101
     33 C          64.2411   86.3242   15.8135 C.3     1  UNL1        0.1109
     34 C          63.2920   86.6942   16.9145 C.3     1  UNL1        0.0228
     35 C          63.1555   88.1269   17.3372 C.3     1  UNL1        0.0020
     36 C          62.4795   85.6314   17.5929 C.3     1  UNL1        0.0020
@<TRIPOS>BOND
     1    23    24    1
     2    24    25   ar
     3    25    26   ar
     4    26    27   ar
     5    27    28   ar
     6    28    29   ar
     7    29    30   ar
     8    30    31   ar
     9    31    32   ar
    10    32    22    1
    11    22     1    1
    12     1     2   ar
    13     2     3   ar
    14     3     4   ar
    15     4     5   ar
    16     5    13    1
    17    13    14    2
    18    13    15   am
    19    15    16    1
    20    16    17    1
    21    17    18    1
    22    18    19    1
    23    18    20    1
    24     4     6   ar
    25     6     7    2
    26     6     8   ar
    27     8     9    1
    28     8    10   ar
    29    10    11    2
    30    10    12   ar
    31    12    33    1
    32    33    34    1
    33    34    35    1
    34    34    36    1
    35    32    24   ar
    36     5     1   ar
    37    20    15    1
    38    31    26   ar
    39    12     3   ar
    40    19    21    1
@<TRIPOS>MOLECULE
*****
 36 40 0 0 0
SMALL
GASTEIGER

@<TRIPOS>ATOM
      1 C          63.3557   86.4404   12.7055 C.ar    1  UNL1        0.0359
      2 S          62.6031   87.6516   12.2403 S.2     1  UNL1       -0.0718
      3 C          62.0061   87.3399   10.9000 C.ar    1  UNL1        0.0983
      4 C          62.3897   85.9361   10.5368 C.ar    1  UNL1        0.0830
      5 C          63.2239   85.3801   11.6527 C.ar    1  UNL1        0.0639
      6 C          61.9300   85.3453    9.2370 C.ar    1  UNL1        0.2663
      7 O          62.3136   83.9414    8.8738 O.2     1  UNL1       -0.2668
      8 N          61.0866   86.1584    8.3002 N.ar    1  UNL1       -0.2467
      9 C          60.6268   85.5676    7.0004 C.3     1  UNL1        0.1382
     10 C          60.7029   87.5623    8.6634 C.ar    1  UNL1        0.3342
     11 O          59.8595   88.3755    7.7267 O.2     1  UNL1       -0.2462
     12 N          61.1626   88.1531    9.9632 N.ar    1  UNL1       -0.2757
     13 C          63.8212   84.0052   11.7064 C.2     1  UNL1        0.2495
     14 O          64.9418   83.6377   10.7794 O.2     1  UNL1       -0.2699
     15 N          63.2981   82.9979   12.6870 N.am    1  UNL1       -0.2735
     16 C          62.1881   83.2196   13.6713 C.3     1  UNL1        0.0964
     17 C          61.9970   81.9507   14.4481 C.3     1  UNL1        0.0525
     18 C          62.9889   80.9448   13.9439 C.3     1  UNL1        0.1320
     19 O          63.1487   79.5385   14.4408 O.3     1  UNL1       -0.3827
     20 C          63.7930   81.5920   12.8554 C.3     1  UNL1        0.1228
     21 H          63.8598   79.1002   13.9478 H       1  UNL1        0.2104
     22 C          64.1080   86.3119   13.9968 C.3     1  UNL1        0.1405
     23 C          62.7469   85.3898   16.8157 C.3     1  UNL1        0.0719
     24 C          63.1501   86.7867   16.4467 C.ar    1  UNL1        0.1210
     25 N          62.9984   88.0050   17.3085 N.ar    1  UNL1       -0.2309
     26 C          63.5303   89.1818   16.5456 C.ar    1  UNL1        0.0983
     27 C          63.6393   90.6369   16.8927 C.ar    1  UNL1        0.0206
     28 C          64.2287   91.6011   15.9063 C.ar    1  UNL1        0.0016
     29 C          64.7091   91.1102   14.5728 C.ar    1  UNL1        0.0016
     30 C          64.6001   89.6550   14.2258 C.ar    1  UNL1        0.0188
     31 C          64.0107   88.6908   15.2121 C.ar    1  UNL1        0.0789
     32 N          63.7757   87.2106   15.1510 N.ar    1  UNL1       -0.3101
     33 C          60.7789   89.5570   10.3263 C.3     1  UNL1        0.1109
     34 C          59.6673   89.8019   11.3032 C.3     1  UNL1        0.0228
     35 C          59.1091   91.1837   11.4732 C.3     1  UNL1        0.0020
     36 C          59.1140   88.6649   12.1101 C.3     1  UNL1        0.0020
@<TRIPOS>BOND
     1    23    24    1
     2    24    25   ar
     3    25    26   ar
     4    26    27   ar
     5    27    28   ar
     6    28    29   ar
     7    29    30   ar
     8    30    31   ar
     9    31    32   ar
    10    32    22    1
    11    22     1    1
    12     1     2   ar
    13     2     3   ar
    14     3     4   ar
    15     4     5   ar
    16     5    13    1
    17    13    14    2
    18    13    15   am
    19    15    16    1
    20    16    17    1
    21    17    18    1
    22    18    19    1
    23    18    20    1
    24     4     6   ar
    25     6     7    2
    26     6     8   ar
    27     8     9    1
    28     8    10   ar
    29    10    11    2
    30    10    12   ar
    31    12    33    1
    32    33    34    1
    33    34    35    1
    34    34    36    1
    35    32    24   ar
    36     5     1   ar
    37    20    15    1
    38    31    26   ar
    39    12     3   ar
    40    19    21    1
@<TRIPOS>MOLECULE
*****
 36 40 0 0 0
SMALL
GASTEIGER

@<TRIPOS>ATOM
      1 C          62.8730   88.6887   12.7500 C.ar    1  UNL1        0.0359
      2 S          63.3590   87.6012   13.6616 S.2     1  UNL1       -0.0718
      3 C          63.4530   86.3347   12.8634 C.ar    1  UNL1        0.0983
      4 C          63.0252   86.6394   11.4585 C.ar    1  UNL1        0.0830
      5 C          62.6666   88.0943   11.3883 C.ar    1  UNL1        0.0639
      6 C          63.0172   85.5527   10.4244 C.ar    1  UNL1        0.2663
      7 O          62.5893   85.8575    9.0195 O.2     1  UNL1       -0.2668
      8 N          63.4372   84.1614   10.7954 N.ar    1  UNL1       -0.2467
      9 C          63.4292   83.0747    9.7614 C.3     1  UNL1        0.1382
     10 C          63.8651   83.8566   12.2004 C.ar    1  UNL1        0.3342
     11 O          64.2850   82.4652   12.5714 O.2     1  UNL1       -0.2462
     12 N          63.8730   84.9432   13.2344 N.ar    1  UNL1       -0.2757
     13 C          62.1862   88.8262   10.1704 C.2     1  UNL1        0.2495
     14 O          62.9572   90.0028    9.6497 O.2     1  UNL1       -0.2699
     15 N          60.9348   88.3815    9.4731 N.am    1  UNL1       -0.2735
     16 C          60.0635   87.2287    9.8753 C.3     1  UNL1        0.0964
     17 C          58.9251   87.1462    8.9020 C.3     1  UNL1        0.0525
     18 C          59.0928   88.2482    7.8982 C.3     1  UNL1        0.1320
     19 O          58.1790   88.5361    6.7441 O.3     1  UNL1       -0.3827
     20 C          60.3349   89.0116    8.2512 C.3     1  UNL1        0.1228
     21 H          58.5132   89.3010    6.2501 H       1  UNL1        0.2104
     22 C          62.6351   90.1193   13.1327 C.3     1  UNL1        0.1405
     23 C          63.6065   90.4401   16.2316 C.3     1  UNL1        0.0719
     24 C          64.2217   91.1133   15.0406 C.ar    1  UNL1        0.1210
     25 N          65.3913   92.0520   15.0649 N.ar    1  UNL1       -0.2309
     26 C          65.6677   92.4848   13.6556 C.ar    1  UNL1        0.0983
     27 C          66.6998   93.4034   13.0719 C.ar    1  UNL1        0.0206
     28 C          66.7332   93.6508   11.5928 C.ar    1  UNL1        0.0016
     29 C          65.7343   92.9795   10.6974 C.ar    1  UNL1        0.0016
     30 C          64.7022   92.0609   11.2812 C.ar    1  UNL1        0.0188
     31 C          64.6689   91.8135   12.7602 C.ar    1  UNL1        0.0789
     32 N          63.7752   90.9658   13.6162 N.ar    1  UNL1       -0.3101
     33 C          64.3009   84.6384   14.6394 C.3     1  UNL1        0.1109
     34 C          63.3068   84.7166   15.7599 C.3     1  UNL1        0.0228
     35 C          63.4959   85.7163   16.8621 C.3     1  UNL1        0.0020
     36 C          62.1235   83.7949   15.7782 C.3     1  UNL1        0.0020
@<TRIPOS>BOND
     1    23    24    1
     2    24    25   ar
     3    25    26   ar
     4    26    27   ar
     5    27    28   ar
     6    28    29   ar
     7    29    30   ar
     8    30    31   ar
     9    31    32   ar
    10    32    22    1
    11    22     1    1
    12     1     2   ar
    13     2     3   ar
    14     3     4   ar
    15     4     5   ar
    16     5    13    1
    17    13    14    2
    18    13    15   am
    19    15    16    1
    20    16    17    1
    21    17    18    1
    22    18    19    1
    23    18    20    1
    24     4     6   ar
    25     6     7    2
    26     6     8   ar
    27     8     9    1
    28     8    10   ar
    29    10    11    2
    30    10    12   ar
    31    12    33    1
    32    33    34    1
    33    34    35    1
    34    34    36    1
    35    32    24   ar
    36     5     1   ar
    37    20    15    1
    38    31    26   ar
    39    12     3   ar
    40    19    21    1
@<TRIPOS>MOLECULE
*****
 36 40 0 0 0
SMALL
GASTEIGER

@<TRIPOS>ATOM
      1 C          63.0274   86.8276   12.1755 C.ar    1  UNL1        0.0359
      2 S          62.4283   86.0446   11.0451 S.2     1  UNL1       -0.0718
      3 C          61.6386   86.9923   10.1919 C.ar    1  UNL1        0.0983
      4 C          61.7495   88.3612   10.7950 C.ar    1  UNL1        0.0830
      5 C          62.6078   88.2595   12.0210 C.ar    1  UNL1        0.0639
      6 C          61.0546   89.5236   10.1500 C.ar    1  UNL1        0.2663
      7 O          61.1655   90.8925   10.7531 O.2     1  UNL1       -0.2668
      8 N          60.2487   89.3170    8.9018 N.ar    1  UNL1       -0.2467
      9 C          59.5538   90.4794    8.2568 C.3     1  UNL1        0.1382
     10 C          60.1378   87.9481    8.2987 C.ar    1  UNL1        0.3342
     11 O          59.3319   87.7415    7.0505 O.2     1  UNL1       -0.2462
     12 N          60.8327   86.7858    8.9437 N.ar    1  UNL1       -0.2757
     13 C          62.9811   89.3909   12.9323 C.2     1  UNL1        0.2495
     14 O          62.5583   89.3656   14.3712 O.2     1  UNL1       -0.2699
     15 N          63.7771   90.5476   12.4047 N.am    1  UNL1       -0.2735
     16 C          64.2681   90.7109   10.9968 C.3     1  UNL1        0.0964
     17 C          65.0164   92.0083   10.9143 C.3     1  UNL1        0.0525
     18 C          64.9878   92.6469   12.2713 C.3     1  UNL1        0.1320
     19 O          65.6150   93.9581   12.6421 O.3     1  UNL1       -0.3827
     20 C          64.2219   91.7441   13.1924 C.3     1  UNL1        0.1228
     21 H          65.4508   94.1412   13.5804 H       1  UNL1        0.2104
     22 C          63.8938   86.2759   13.2685 C.3     1  UNL1        0.1405
     23 C          63.3460   85.9045   16.4641 C.3     1  UNL1        0.0719
     24 C          63.2605   84.8272   15.4238 C.ar    1  UNL1        0.1210
     25 N          62.9082   83.3900   15.6697 N.ar    1  UNL1       -0.2309
     26 C          62.9423   82.6725   14.3530 C.ar    1  UNL1        0.0983
     27 C          62.6816   81.2428   13.9819 C.ar    1  UNL1        0.0206
     28 C          62.7942   80.8067   12.5512 C.ar    1  UNL1        0.0016
     29 C          63.1676   81.8004   11.4914 C.ar    1  UNL1        0.0016
     30 C          63.4282   83.2302   11.8624 C.ar    1  UNL1        0.0188
     31 C          63.3156   83.6662   13.2932 C.ar    1  UNL1        0.0789
     32 N          63.5123   84.9979   13.9550 N.ar    1  UNL1       -0.3101
     33 C          60.7217   85.4168    8.3406 C.3     1  UNL1        0.1109
     34 C          61.7833   84.9217    7.4037 C.3     1  UNL1        0.0228
     35 C          63.2213   84.9252    7.8305 C.3     1  UNL1        0.0020
     36 C          61.4069   84.4230    6.0401 C.3     1  UNL1        0.0020
@<TRIPOS>BOND
     1    23    24    1
     2    24    25   ar
     3    25    26   ar
     4    26    27   ar
     5    27    28   ar
     6    28    29   ar
     7    29    30   ar
     8    30    31   ar
     9    31    32   ar
    10    32    22    1
    11    22     1    1
    12     1     2   ar
    13     2     3   ar
    14     3     4   ar
    15     4     5   ar
    16     5    13    1
    17    13    14    2
    18    13    15   am
    19    15    16    1
    20    16    17    1
    21    17    18    1
    22    18    19    1
    23    18    20    1
    24     4     6   ar
    25     6     7    2
    26     6     8   ar
    27     8     9    1
    28     8    10   ar
    29    10    11    2
    30    10    12   ar
    31    12    33    1
    32    33    34    1
    33    34    35    1
    34    34    36    1
    35    32    24   ar
    36     5     1   ar
    37    20    15    1
    38    31    26   ar
    39    12     3   ar
    40    19    21    1
@<TRIPOS>MOLECULE
*****
 36 40 0 0 0
SMALL
GASTEIGER

@<TRIPOS>ATOM
      1 C          63.0837   88.3900   13.0279 C.ar    1  UNL1        0.0359
      2 S          64.2682   88.9709   13.7417 S.2     1  UNL1       -0.0718
      3 C          64.6652   90.2310   13.0316 C.ar    1  UNL1        0.0983
      4 C          63.7262   90.4291   11.8789 C.ar    1  UNL1        0.0830
      5 C          62.7487   89.2912   11.8765 C.ar    1  UNL1        0.0639
      6 C          63.8824   91.6199   10.9802 C.ar    1  UNL1        0.2663
      7 O          62.9433   91.8178    9.8274 O.2     1  UNL1       -0.2668
      8 N          64.9777   92.6127   11.2343 N.ar    1  UNL1       -0.2467
      9 C          65.1339   93.8035   10.3356 C.3     1  UNL1        0.1382
     10 C          65.9168   92.4147   12.3871 C.ar    1  UNL1        0.3342
     11 O          67.0121   93.4075   12.6413 O.2     1  UNL1       -0.2462
     12 N          65.7606   91.2239   13.2858 N.ar    1  UNL1       -0.2757
     13 C          61.6323   89.0899   10.8951 C.2     1  UNL1        0.2495
     14 O          60.4671   90.0344   10.8807 O.2     1  UNL1       -0.2699
     15 N          61.6811   87.9442    9.9282 N.am    1  UNL1       -0.2735
     16 C          62.7755   86.9236    9.8250 C.3     1  UNL1        0.0964
     17 C          62.4149   85.9665    8.7277 C.3     1  UNL1        0.0525
     18 C          61.0976   86.3956    8.1528 C.3     1  UNL1        0.1320
     19 O          60.3628   85.7210    7.0326 O.3     1  UNL1       -0.3827
     20 C          60.6441   87.6179    8.8947 C.3     1  UNL1        0.1228
     21 H          59.5372   86.1978    6.8541 H       1  UNL1        0.2104
     22 C          62.3611   87.1293   13.3999 C.3     1  UNL1        0.1405
     23 C          63.7384   86.5744   16.3059 C.3     1  UNL1        0.0719
     24 C          63.7711   85.6513   15.1241 C.ar    1  UNL1        0.1210
     25 N          64.4426   84.3111   15.0704 N.ar    1  UNL1       -0.2309
     26 C          64.2245   83.7378   13.7016 C.ar    1  UNL1        0.0983
     27 C          64.6559   82.4454   13.0743 C.ar    1  UNL1        0.0206
     28 C          64.2811   82.1389   11.6546 C.ar    1  UNL1        0.0016
     29 C          63.4749   83.1249   10.8622 C.ar    1  UNL1        0.0016
     30 C          63.0435   84.4172   11.4895 C.ar    1  UNL1        0.0188
     31 C          63.4183   84.7237   12.9092 C.ar    1  UNL1        0.0789
     32 N          63.1381   85.9063   13.7883 N.ar    1  UNL1       -0.3101
     33 C          66.6997   91.0259   14.4385 C.3     1  UNL1        0.1109
     34 C          66.7392   92.0277   15.5543 C.3     1  UNL1        0.0228
     35 C          68.0478   92.6245   15.9804 C.3     1  UNL1        0.0020
     36 C          65.4702   92.4325   16.2440 C.3     1  UNL1        0.0020
@<TRIPOS>BOND
     1    23    24    1
     2    24    25   ar
     3    25    26   ar
     4    26    27   ar
     5    27    28   ar
     6    28    29   ar
     7    29    30   ar
     8    30    31   ar
     9    31    32   ar
    10    32    22    1
    11    22     1    1
    12     1     2   ar
    13     2     3   ar
    14     3     4   ar
    15     4     5   ar
    16     5    13    1
    17    13    14    2
    18    13    15   am
    19    15    16    1
    20    16    17    1
    21    17    18    1
    22    18    19    1
    23    18    20    1
    24     4     6   ar
    25     6     7    2
    26     6     8   ar
    27     8     9    1
    28     8    10   ar
    29    10    11    2
    30    10    12   ar
    31    12    33    1
    32    33    34    1
    33    34    35    1
    34    34    36    1
    35    32    24   ar
    36     5     1   ar
    37    20    15    1
    38    31    26   ar
    39    12     3   ar
    40    19    21    1
@<TRIPOS>MOLECULE
*****
 36 40 0 0 0
SMALL
GASTEIGER

@<TRIPOS>ATOM
      1 C          62.4066   89.9525   12.3475 C.ar    1  UNL1        0.0359
      2 S          63.1191   90.9059   11.4346 S.2     1  UNL1       -0.0718
      3 C          64.2247   91.5547   12.2134 C.ar    1  UNL1        0.0983
      4 C          64.1957   91.0024   13.6076 C.ar    1  UNL1        0.0830
      5 C          63.0720   90.0121   13.6905 C.ar    1  UNL1        0.0639
      6 C          65.1961   91.4725   14.6216 C.ar    1  UNL1        0.2663
      7 O          65.1670   90.9201   16.0159 O.2     1  UNL1       -0.2668
      8 N          66.2256   92.4949   14.2413 N.ar    1  UNL1       -0.2467
      9 C          67.2261   92.9650   15.2553 C.3     1  UNL1        0.1382
     10 C          66.2548   93.0473   12.8470 C.ar    1  UNL1        0.3342
     11 O          67.2843   94.0697   12.4667 O.2     1  UNL1       -0.2462
     12 N          65.2543   92.5772   11.8330 N.ar    1  UNL1       -0.2757
     13 C          62.6821   89.2205   14.9035 C.2     1  UNL1        0.2495
     14 O          61.5522   89.6874   15.7724 O.2     1  UNL1       -0.2699
     15 N          63.4223   87.9620   15.2476 N.am    1  UNL1       -0.2735
     16 C          64.5673   87.3740   14.4774 C.3     1  UNL1        0.0964
     17 C          65.0001   86.1191   15.1760 C.3     1  UNL1        0.0525
     18 C          64.1226   85.9317   16.3780 C.3     1  UNL1        0.1320
     19 O          64.2056   84.8033   17.3629 O.3     1  UNL1       -0.3827
     20 C          63.1475   87.0706   16.4222 C.3     1  UNL1        0.1228
     21 H          63.5254   84.9187   18.0448 H       1  UNL1        0.2104
     22 C          61.2347   89.0908   11.9817 C.3     1  UNL1        0.1405
     23 C          63.0966   86.4360   12.3494 C.3     1  UNL1        0.0719
     24 C          62.2560   86.7643   11.1512 C.ar    1  UNL1        0.1210
     25 N          62.1236   85.9301    9.9117 N.ar    1  UNL1       -0.2309
     26 C          61.1860   86.6346    8.9766 C.ar    1  UNL1        0.0983
     27 C          60.6816   86.2841    7.6082 C.ar    1  UNL1        0.0206
     28 C          59.7301   87.2033    6.9013 C.ar    1  UNL1        0.0016
     29 C          59.2830   88.4731    7.5629 C.ar    1  UNL1        0.0016
     30 C          59.7874   88.8236    8.9313 C.ar    1  UNL1        0.0188
     31 C          60.7389   87.9044    9.6382 C.ar    1  UNL1        0.0789
     32 N          61.4002   87.9846   10.9821 N.ar    1  UNL1       -0.3101
     33 C          65.2835   93.1296   10.4388 C.3     1  UNL1        0.1109
     34 C          66.5953   93.3403    9.7427 C.3     1  UNL1        0.0228
     35 C          67.6145   92.2401    9.7142 C.3     1  UNL1        0.0020
     36 C          66.8880   94.6513    9.0752 C.3     1  UNL1        0.0020
@<TRIPOS>BOND
     1    23    24    1
     2    24    25   ar
     3    25    26   ar
     4    26    27   ar
     5    27    28   ar
     6    28    29   ar
     7    29    30   ar
     8    30    31   ar
     9    31    32   ar
    10    32    22    1
    11    22     1    1
    12     1     2   ar
    13     2     3   ar
    14     3     4   ar
    15     4     5   ar
    16     5    13    1
    17    13    14    2
    18    13    15   am
    19    15    16    1
    20    16    17    1
    21    17    18    1
    22    18    19    1
    23    18    20    1
    24     4     6   ar
    25     6     7    2
    26     6     8   ar
    27     8     9    1
    28     8    10   ar
    29    10    11    2
    30    10    12   ar
    31    12    33    1
    32    33    34    1
    33    34    35    1
    34    34    36    1
    35    32    24   ar
    36     5     1   ar
    37    20    15    1
    38    31    26   ar
    39    12     3   ar
    40    19    21    1
@<TRIPOS>MOLECULE
*****
 36 40 0 0 0
SMALL
GASTEIGER

@<TRIPOS>ATOM
      1 C          62.1041   85.6260   11.6104 C.ar    1  UNL1        0.0359
      2 S          62.9208   86.1870   12.7365 S.2     1  UNL1       -0.0718
      3 C          63.1173   87.6521   12.4816 C.ar    1  UNL1        0.0983
      4 C          62.4220   87.9966   11.1980 C.ar    1  UNL1        0.0830
      5 C          61.7958   86.7443   10.6594 C.ar    1  UNL1        0.0639
      6 C          62.4489   89.4059   10.6852 C.ar    1  UNL1        0.2663
      7 O          61.7536   89.7504    9.4015 O.2     1  UNL1       -0.2668
      8 N          63.1710   90.4709   11.4561 N.ar    1  UNL1       -0.2467
      9 C          63.1979   91.8803   10.9433 C.3     1  UNL1        0.1382
     10 C          63.8663   90.1265   12.7398 C.ar    1  UNL1        0.3342
     11 O          64.5885   91.1914   13.5108 O.2     1  UNL1       -0.2462
     12 N          63.8395   88.7171   13.2526 N.ar    1  UNL1       -0.2757
     13 C          61.0010   86.6305    9.3925 C.2     1  UNL1        0.2495
     14 O          59.6824   87.3347    9.2686 O.2     1  UNL1       -0.2699
     15 N          61.5247   85.8124    8.2495 N.am    1  UNL1       -0.2735
     16 C          62.8197   85.0559    8.2272 C.3     1  UNL1        0.0964
     17 C          62.9407   84.3832    6.8920 C.3     1  UNL1        0.0525
     18 C          61.7205   84.7240    6.0890 C.3     1  UNL1        0.1320
     19 O          61.4269   84.2626    4.6923 O.3     1  UNL1       -0.3827
     20 C          60.8453   85.6073    6.9280 C.3     1  UNL1        0.1228
     21 H          60.5740   84.6244    4.4047 H       1  UNL1        0.2104
     22 C          61.6717   84.1975   11.4613 C.3     1  UNL1        0.1405
     23 C          64.7877   83.8574   10.5532 C.3     1  UNL1        0.0719
     24 C          64.0260   82.9317   11.4548 C.ar    1  UNL1        0.1210
     25 N          64.5629   81.6871   12.0973 N.ar    1  UNL1       -0.2309
     26 C          63.4625   81.0742   12.9118 C.ar    1  UNL1        0.0983
     27 C          63.4113   79.8396   13.7621 C.ar    1  UNL1        0.0206
     28 C          62.1433   79.4708   14.4733 C.ar    1  UNL1        0.0016
     29 C          60.9263   80.3366   14.3342 C.ar    1  UNL1        0.0016
     30 C          60.9774   81.5712   13.4839 C.ar    1  UNL1        0.0188
     31 C          62.2455   81.9400   12.7727 C.ar    1  UNL1        0.0789
     32 N          62.5938   83.0880   11.8722 N.ar    1  UNL1       -0.3101
     33 C          64.5347   88.3727   14.5363 C.3     1  UNL1        0.1109
     34 C          63.7510   88.2773   15.8117 C.3     1  UNL1        0.0228
     35 C          63.5149   86.9400   16.4487 C.3     1  UNL1        0.0020
     36 C          63.2032   89.5193   16.4499 C.3     1  UNL1        0.0020
@<TRIPOS>BOND
     1    23    24    1
     2    24    25   ar
     3    25    26   ar
     4    26    27   ar
     5    27    28   ar
     6    28    29   ar
     7    29    30   ar
     8    30    31   ar
     9    31    32   ar
    10    32    22    1
    11    22     1    1
    12     1     2   ar
    13     2     3   ar
    14     3     4   ar
    15     4     5   ar
    16     5    13    1
    17    13    14    2
    18    13    15   am
    19    15    16    1
    20    16    17    1
    21    17    18    1
    22    18    19    1
    23    18    20    1
    24     4     6   ar
    25     6     7    2
    26     6     8   ar
    27     8     9    1
    28     8    10   ar
    29    10    11    2
    30    10    12   ar
    31    12    33    1
    32    33    34    1
    33    34    35    1
    34    34    36    1
    35    32    24   ar
    36     5     1   ar
    37    20    15    1
    38    31    26   ar
    39    12     3   ar
    40    19    21    1
@<TRIPOS>MOLECULE
*****
 36 40 0 0 0
SMALL
GASTEIGER

@<TRIPOS>ATOM
      1 C          63.3323   85.9604   12.2990 C.ar    1  UNL1        0.0359
      2 S          62.7218   87.3171   12.1081 S.2     1  UNL1       -0.0718
      3 C          61.9977   87.3189   10.7945 C.ar    1  UNL1        0.0983
      4 C          62.1606   85.9633   10.1735 C.ar    1  UNL1        0.0830
      5 C          62.9855   85.1236   11.1034 C.ar    1  UNL1        0.0639
      6 C          61.5369   85.6685    8.8416 C.ar    1  UNL1        0.2663
      7 O          61.6999   84.3129    8.2206 O.2     1  UNL1       -0.2668
      8 N          60.7501   86.7294    8.1306 N.ar    1  UNL1       -0.2467
      9 C          60.1263   86.4346    6.7987 C.3     1  UNL1        0.1382
     10 C          60.5871   88.0851    8.7515 C.ar    1  UNL1        0.3342
     11 O          59.8003   89.1460    8.0407 O.2     1  UNL1       -0.2462
     12 N          61.2108   88.3799   10.0835 N.ar    1  UNL1       -0.2757
     13 C          63.3922   83.6977   10.8773 C.2     1  UNL1        0.2495
     14 O          64.2961   83.3481    9.7324 O.2     1  UNL1       -0.2699
     15 N          62.8950   82.6212   11.7960 N.am    1  UNL1       -0.2735
     16 C          61.9906   82.8179   12.9764 C.3     1  UNL1        0.0964
     17 C          61.7515   81.4774   13.6056 C.3     1  UNL1        0.0525
     18 C          62.5082   80.4522   12.8141 C.3     1  UNL1        0.1320
     19 O          62.5507   78.9788   13.0921 O.3     1  UNL1       -0.3827
     20 C          63.2149   81.1592   11.6957 C.3     1  UNL1        0.1228
     21 H          63.1113   78.5414   12.4323 H       1  UNL1        0.2104
     22 C          64.1467   85.5180   13.4784 C.3     1  UNL1        0.1405
     23 C          63.3286   83.5921   15.9826 C.3     1  UNL1        0.0719
     24 C          63.4016   85.0901   16.0096 C.ar    1  UNL1        0.1210
     25 N          63.1114   85.9658   17.1923 N.ar    1  UNL1       -0.2309
     26 C          63.3080   87.3923   16.7723 C.ar    1  UNL1        0.0983
     27 C          63.1654   88.6866   17.5168 C.ar    1  UNL1        0.0206
     28 C          63.4345   89.9868   16.8190 C.ar    1  UNL1        0.0016
     29 C          63.8463   89.9927   15.3766 C.ar    1  UNL1        0.0016
     30 C          63.9889   88.6984   14.6321 C.ar    1  UNL1        0.0188
     31 C          63.7198   87.3982   15.3300 C.ar    1  UNL1        0.0789
     32 N          63.7776   85.9754   14.8586 N.ar    1  UNL1       -0.3101
     33 C          61.0478   89.7355   10.7044 C.3     1  UNL1        0.1109
     34 C          62.2516   90.5931   10.9601 C.3     1  UNL1        0.0228
     35 C          63.0010   91.1962    9.8092 C.3     1  UNL1        0.0020
     36 C          62.7060   90.8475   12.3668 C.3     1  UNL1        0.0020
@<TRIPOS>BOND
     1    23    24    1
     2    24    25   ar
     3    25    26   ar
     4    26    27   ar
     5    27    28   ar
     6    28    29   ar
     7    29    30   ar
     8    30    31   ar
     9    31    32   ar
    10    32    22    1
    11    22     1    1
    12     1     2   ar
    13     2     3   ar
    14     3     4   ar
    15     4     5   ar
    16     5    13    1
    17    13    14    2
    18    13    15   am
    19    15    16    1
    20    16    17    1
    21    17    18    1
    22    18    19    1
    23    18    20    1
    24     4     6   ar
    25     6     7    2
    26     6     8   ar
    27     8     9    1
    28     8    10   ar
    29    10    11    2
    30    10    12   ar
    31    12    33    1
    32    33    34    1
    33    34    35    1
    34    34    36    1
    35    32    24   ar
    36     5     1   ar
    37    20    15    1
    38    31    26   ar
    39    12     3   ar
    40    19    21    1
