@<TRIPOS>MOLECULE
*****
 31 32 0 0 0
SMALL
GASTEIGER

@<TRIPOS>ATOM
      1 C          63.3945   90.3926   12.1127 C.2     1  UNL1        0.0707
      2 C          63.6530   91.3647   11.0000 C.2     1  UNL1        0.0283
      3 C          62.9128   91.2330    9.7019 C.3     1  UNL1        0.0470
      4 N          64.6517   92.4685   11.1853 N.pl3   1  UNL1       -0.3192
      5 C          65.3918   92.6002   12.4832 C.2     1  UNL1        0.0283
      6 C          66.3905   93.7039   12.6685 C.3     1  UNL1        0.0470
      7 C          65.1333   91.6281   13.5960 C.2     1  UNL1        0.0707
      8 C          64.1346   90.5243   13.4107 C.3     1  UNL1        0.0814
      9 H          64.8214   93.1065   10.4549 H       1  UNL1        0.1516
     10 C          63.8761   89.5522   14.5235 C.ar    1  UNL1       -0.0077
     11 C          63.1892   90.0109   15.7756 C.ar    1  UNL1       -0.0032
     12 C          62.9307   89.0389   16.8884 C.ar    1  UNL1        0.0060
     13 C          63.3591   87.6081   16.7491 C.ar    1  UNL1        0.0752
     14 C          64.0459   87.1494   15.4969 C.ar    1  UNL1        0.2898
     15 C          64.3045   88.1215   14.3841 C.ar    1  UNL1        0.0716
     16 N          64.4743   85.7186   15.3576 N.pl3   1  UNL1        0.0809
     17 O          63.6194   84.6216   15.9196 O.2     1  UNL1        0.0415
     18 O          65.7575   85.3849   14.6563 O.co2   1  UNL1       -0.5760
     19 C          62.3958   89.2888   11.9274 C.2     1  UNL1        0.3388
     20 O          60.9890   89.4599   12.4190 O.2     1  UNL1       -0.2452
     21 O          62.8039   88.0140   11.2507 O.3     1  UNL1       -0.4429
     22 C          61.7596   87.0969   10.6863 C.3     1  UNL1        0.2407
     23 C          61.6543   85.6850   11.1821 C.3     1  UNL1        0.1895
     24 C          62.8233   83.8880   12.6497 C.3     1  UNL1        0.1743
     25 O          62.3210   85.2894   12.4662 O.3     1  UNL1       -0.3471
     26 C          65.8735   91.7597   14.8940 C.2     1  UNL1        0.3386
     27 O          65.2074   92.4002   16.0756 O.2     1  UNL1       -0.2452
     28 O          67.2797   91.2509   15.0104 O.3     1  UNL1       -0.4494
     29 C          68.4322   92.2081   14.9367 C.3     1  UNL1        0.1694
     30 C          69.4989   92.0192   13.8993 C.3     1  UNL1        0.0473
     31 C          68.5179   93.3544   15.9005 C.3     1  UNL1        0.0473
@<TRIPOS>UNITY_ATOM_ATTR
16 1
charge 1
18 1
charge -1
@<TRIPOS>BOND
     1    24    25    1
     2    25    23    1
     3    23    22    1
     4    22    21    1
     5    21    19    1
     6    19    20    2
     7    19     1    1
     8     1     2    2
     9     2     3    1
    10     2     4    1
    11     4     5    1
    12     5     6    1
    13     5     7    2
    14     7    26    1
    15    26    27    2
    16    26    28    1
    17    28    29    1
    18    29    30    1
    19    29    31    1
    20     7     8    1
    21     8    10    1
    22    10    11   ar
    23    11    12   ar
    24    12    13   ar
    25    13    14   ar
    26    14    16    1
    27    16    17    2
    28    16    18    1
    29    14    15   ar
    30     8     1    1
    31    15    10   ar
    32     4     9    1
@<TRIPOS>MOLECULE
*****
 31 32 0 0 0
SMALL
GASTEIGER

@<TRIPOS>ATOM
      1 C          65.0775   91.5910   13.7039 C.2     1  UNL1        0.0707
      2 C          65.3269   92.5858   12.6093 C.2     1  UNL1        0.0283
      3 C          66.2916   93.7138   12.8265 C.3     1  UNL1        0.0470
      4 N          64.6118   92.4526   11.2976 N.pl3   1  UNL1       -0.3192
      5 C          63.6471   91.3247   11.0804 C.2     1  UNL1        0.0283
      6 C          62.9320   91.1915    9.7686 C.3     1  UNL1        0.0470
      7 C          63.3977   90.3299   12.1750 C.2     1  UNL1        0.0707
      8 C          64.1129   90.4631   13.4867 C.3     1  UNL1        0.0814
      9 H          64.7755   93.1055   10.5791 H       1  UNL1        0.1516
     10 C          63.8634   89.4682   14.5814 C.ar    1  UNL1       -0.0077
     11 C          63.1887   89.9015   15.8491 C.ar    1  UNL1       -0.0032
     12 C          62.9392   88.9067   16.9437 C.ar    1  UNL1        0.0060
     13 C          63.3644   87.4787   16.7706 C.ar    1  UNL1        0.0752
     14 C          64.0390   87.0454   15.5028 C.ar    1  UNL1        0.2898
     15 C          64.2885   88.0402   14.4082 C.ar    1  UNL1        0.0716
     16 N          64.4642   85.6174   15.3297 N.pl3   1  UNL1        0.0809
     17 O          65.8093   85.3008   14.7463 O.2     1  UNL1        0.0415
     18 O          63.5442   84.5060   15.7400 O.co2   1  UNL1       -0.5760
     19 C          65.7927   91.7242   15.0157 C.2     1  UNL1        0.3388
     20 O          65.1309   92.4289   16.1626 O.2     1  UNL1       -0.2452
     21 O          67.1696   91.1527   15.1806 O.3     1  UNL1       -0.4429
     22 C          68.2488   91.9705   15.8259 C.3     1  UNL1        0.2407
     23 C          69.1594   92.8113   14.9808 C.3     1  UNL1        0.1895
     24 C          68.9988   91.5987   12.6887 C.3     1  UNL1        0.1743
     25 O          69.8267   92.2162   13.7765 O.3     1  UNL1       -0.3471
     26 C          62.4330   89.2019   11.9578 C.2     1  UNL1        0.3386
     27 O          60.9891   89.3680   12.3285 O.2     1  UNL1       -0.2452
     28 O          62.9123   87.9078   11.3699 O.3     1  UNL1       -0.4494
     29 C          61.9855   87.0741   10.5357 C.3     1  UNL1        0.1694
     30 C          61.6984   85.6543   10.9251 C.3     1  UNL1        0.0473
     31 C          61.3456   87.6603    9.3122 C.3     1  UNL1        0.0473
@<TRIPOS>UNITY_ATOM_ATTR
16 1
charge 1
18 1
charge -1
@<TRIPOS>BOND
     1    24    25    1
     2    25    23    1
     3    23    22    1
     4    22    21    1
     5    21    19    1
     6    19    20    2
     7    19     1    1
     8     1     2    2
     9     2     3    1
    10     2     4    1
    11     4     5    1
    12     5     6    1
    13     5     7    2
    14     7    26    1
    15    26    27    2
    16    26    28    1
    17    28    29    1
    18    29    30    1
    19    29    31    1
    20     7     8    1
    21     8    10    1
    22    10    11   ar
    23    11    12   ar
    24    12    13   ar
    25    13    14   ar
    26    14    16    1
    27    16    17    2
    28    16    18    1
    29    14    15   ar
    30     8     1    1
    31    15    10   ar
    32     4     9    1
@<TRIPOS>MOLECULE
*****
 31 32 0 0 0
SMALL
GASTEIGER

@<TRIPOS>ATOM
      1 C          62.5393   86.7279   11.0098 C.2     1  UNL1        0.0707
      2 C          62.4929   88.2075   11.2513 C.2     1  UNL1        0.0283
      3 C          61.8565   89.1132   10.2389 C.3     1  UNL1        0.0470
      4 N          63.0829   88.7817   12.5052 N.pl3   1  UNL1       -0.3192
      5 C          63.7193   87.8761   13.5176 C.2     1  UNL1        0.0283
      6 C          64.3092   88.4503   14.7715 C.3     1  UNL1        0.0470
      7 C          63.7657   86.3965   13.2761 C.2     1  UNL1        0.0707
      8 C          63.1757   85.8223   12.0221 C.3     1  UNL1        0.0814
      9 H          63.0524   89.7529   12.6637 H       1  UNL1        0.1516
     10 C          63.2221   84.3426   11.7806 C.ar    1  UNL1       -0.0077
     11 C          63.9830   83.7975   10.6085 C.ar    1  UNL1       -0.0032
     12 C          64.0295   82.3178   10.3670 C.ar    1  UNL1        0.0060
     13 C          63.3150   81.3832   11.2976 C.ar    1  UNL1        0.0752
     14 C          62.5541   81.9283   12.4698 C.ar    1  UNL1        0.2898
     15 C          62.5077   83.4080   12.7113 C.ar    1  UNL1        0.0716
     16 N          61.8397   80.9937   13.4004 N.pl3   1  UNL1        0.0809
     17 O          60.8941   81.5379   14.4298 O.2     1  UNL1        0.0415
     18 O          62.0708   79.5149   13.3016 O.co2   1  UNL1       -0.5760
     19 C          61.9493   86.1537    9.7558 C.2     1  UNL1        0.3388
     20 O          62.8476   85.6043    8.6876 O.2     1  UNL1       -0.2452
     21 O          60.4611   86.1290    9.5702 O.3     1  UNL1       -0.4429
     22 C          59.8735   86.2904    8.1996 C.3     1  UNL1        0.2407
     23 C          59.0333   87.4914    7.8805 C.3     1  UNL1        0.1895
     24 C          59.2633   89.5927    6.3700 C.3     1  UNL1        0.1743
     25 O          59.6888   88.8052    7.5736 O.3     1  UNL1       -0.3471
     26 C          64.4021   85.4909   14.2885 C.2     1  UNL1        0.3386
     27 O          65.1771   84.2885   13.8371 O.2     1  UNL1       -0.2452
     28 O          64.2634   85.7876   15.7523 O.3     1  UNL1       -0.4494
     29 C          62.9623   85.5250   16.4508 C.3     1  UNL1        0.1694
     30 C          62.5888   86.3223   17.6653 C.3     1  UNL1        0.0473
     31 C          62.0346   84.4652   15.9349 C.3     1  UNL1        0.0473
@<TRIPOS>UNITY_ATOM_ATTR
16 1
charge 1
18 1
charge -1
@<TRIPOS>BOND
     1    24    25    1
     2    25    23    1
     3    23    22    1
     4    22    21    1
     5    21    19    1
     6    19    20    2
     7    19     1    1
     8     1     2    2
     9     2     3    1
    10     2     4    1
    11     4     5    1
    12     5     6    1
    13     5     7    2
    14     7    26    1
    15    26    27    2
    16    26    28    1
    17    28    29    1
    18    29    30    1
    19    29    31    1
    20     7     8    1
    21     8    10    1
    22    10    11   ar
    23    11    12   ar
    24    12    13   ar
    25    13    14   ar
    26    14    16    1
    27    16    17    2
    28    16    18    1
    29    14    15   ar
    30     8     1    1
    31    15    10   ar
    32     4     9    1
@<TRIPOS>MOLECULE
*****
 31 32 0 0 0
SMALL
GASTEIGER

@<TRIPOS>ATOM
      1 C          62.9443   87.7927   12.1199 C.2     1  UNL1        0.0707
      2 C          63.4963   88.0471   13.4912 C.2     1  UNL1        0.0283
      3 C          63.5027   89.4389   14.0508 C.3     1  UNL1        0.0470
      4 N          64.0418   86.9098   14.3031 N.pl3   1  UNL1       -0.3192
      5 C          64.0354   85.5181   13.7436 C.2     1  UNL1        0.0283
      6 C          64.5809   84.3809   14.5554 C.3     1  UNL1        0.0470
      7 C          63.4834   85.2637   12.3722 C.2     1  UNL1        0.0707
      8 C          62.9379   86.4010   11.5604 C.3     1  UNL1        0.0814
      9 H          64.4041   87.0769   15.2031 H       1  UNL1        0.1516
     10 C          62.3859   86.1465   10.1891 C.ar    1  UNL1       -0.0077
     11 C          63.1098   85.2305    9.2473 C.ar    1  UNL1       -0.0032
     12 C          62.5579   84.9760    7.8760 C.ar    1  UNL1        0.0060
     13 C          61.2820   85.6374    7.4464 C.ar    1  UNL1        0.0752
     14 C          60.5580   86.5534    8.3881 C.ar    1  UNL1        0.2898
     15 C          61.1100   86.8079    9.7595 C.ar    1  UNL1        0.0716
     16 N          59.2821   87.2148    7.9586 N.pl3   1  UNL1        0.0809
     17 O          59.2740   88.6738    7.6103 O.2     1  UNL1        0.0415
     18 O          58.0144   86.4173    7.8772 O.co2   1  UNL1       -0.5760
     19 C          62.3988   88.9299   11.3081 C.2     1  UNL1        0.3388
     20 O          60.9595   89.3285   11.4479 O.2     1  UNL1       -0.2452
     21 O          63.2925   89.6686   10.3565 O.3     1  UNL1       -0.4429
     22 C          63.2390   91.1660   10.2864 C.3     1  UNL1        0.2407
     23 C          64.4129   91.9806   10.7430 C.3     1  UNL1        0.1895
     24 C          65.9881   92.7459   12.6621 C.3     1  UNL1        0.1743
     25 O          64.6985   92.1289   12.2081 O.3     1  UNL1       -0.3471
     26 C          63.4770   83.8719   11.8127 C.2     1  UNL1        0.3386
     27 O          64.6920   83.3394   11.1126 O.2     1  UNL1       -0.2452
     28 O          62.2555   83.0128   11.9532 O.3     1  UNL1       -0.4494
     29 C          62.2774   81.8212   12.8641 C.3     1  UNL1        0.1694
     30 C          61.8418   81.9611   14.2926 C.3     1  UNL1        0.0473
     31 C          62.7349   80.4897   12.3464 C.3     1  UNL1        0.0473
@<TRIPOS>UNITY_ATOM_ATTR
16 1
charge 1
18 1
charge -1
@<TRIPOS>BOND
     1    24    25    1
     2    25    23    1
     3    23    22    1
     4    22    21    1
     5    21    19    1
     6    19    20    2
     7    19     1    1
     8     1     2    2
     9     2     3    1
    10     2     4    1
    11     4     5    1
    12     5     6    1
    13     5     7    2
    14     7    26    1
    15    26    27    2
    16    26    28    1
    17    28    29    1
    18    29    30    1
    19    29    31    1
    20     7     8    1
    21     8    10    1
    22    10    11   ar
    23    11    12   ar
    24    12    13   ar
    25    13    14   ar
    26    14    16    1
    27    16    17    2
    28    16    18    1
    29    14    15   ar
    30     8     1    1
    31    15    10   ar
    32     4     9    1
@<TRIPOS>MOLECULE
*****
 31 32 0 0 0
SMALL
GASTEIGER

@<TRIPOS>ATOM
      1 C          62.8499   88.7614   11.7879 C.2     1  UNL1        0.0707
      2 C          62.3449   87.6612   10.9023 C.2     1  UNL1        0.0283
      3 C          61.6690   87.9932    9.6049 C.3     1  UNL1        0.0470
      4 N          62.5156   86.2290   11.3139 N.pl3   1  UNL1       -0.3192
      5 C          63.1914   85.8969   12.6112 C.2     1  UNL1        0.0283
      6 C          63.3622   84.4646   13.0228 C.3     1  UNL1        0.0470
      7 C          63.6965   86.9971   13.4968 C.2     1  UNL1        0.0707
      8 C          63.5258   88.4294   13.0851 C.3     1  UNL1        0.0814
      9 H          62.1841   85.5068   10.7326 H       1  UNL1        0.1516
     10 C          64.0309   89.5296   13.9708 C.ar    1  UNL1       -0.0077
     11 C          63.1661   90.0595   15.0760 C.ar    1  UNL1       -0.0032
     12 C          63.6711   91.1597   15.9616 C.ar    1  UNL1        0.0060
     13 C          65.0411   91.7301   15.7422 C.ar    1  UNL1        0.0752
     14 C          65.9059   91.2002   14.6371 C.ar    1  UNL1        0.2898
     15 C          65.4008   90.0999   13.7514 C.ar    1  UNL1        0.0716
     16 N          67.2757   91.7704   14.4176 N.pl3   1  UNL1        0.0809
     17 O          67.7470   92.0758   13.0267 O.2     1  UNL1        0.0415
     18 O          68.1743   92.0353   15.5891 O.co2   1  UNL1       -0.5760
     19 C          62.6792   90.1937   11.3762 C.2     1  UNL1        0.3388
     20 O          61.3945   90.9103   11.6693 O.2     1  UNL1       -0.2452
     21 O          63.7932   90.9094   10.6714 O.3     1  UNL1       -0.4429
     22 C          64.3369   92.1892   11.2342 C.3     1  UNL1        0.2407
     23 C          65.4836   92.8791   10.5565 C.3     1  UNL1        0.1895
     24 C          66.9188   95.0117   10.1801 C.3     1  UNL1        0.1743
     25 O          65.7294   94.3388   10.7985 O.3     1  UNL1       -0.3471
     26 C          64.3724   86.6651   14.7941 C.2     1  UNL1        0.3386
     27 O          65.6332   85.8526   14.7965 O.2     1  UNL1       -0.2452
     28 O          63.7873   87.1457   16.0891 O.3     1  UNL1       -0.4494
     29 C          62.9706   86.2141   16.9346 C.3     1  UNL1        0.1694
     30 C          62.4911   84.9112   16.3665 C.3     1  UNL1        0.0473
     31 C          62.6331   86.5853   18.3482 C.3     1  UNL1        0.0473
@<TRIPOS>UNITY_ATOM_ATTR
16 1
charge 1
18 1
charge -1
@<TRIPOS>BOND
     1    24    25    1
     2    25    23    1
     3    23    22    1
     4    22    21    1
     5    21    19    1
     6    19    20    2
     7    19     1    1
     8     1     2    2
     9     2     3    1
    10     2     4    1
    11     4     5    1
    12     5     6    1
    13     5     7    2
    14     7    26    1
    15    26    27    2
    16    26    28    1
    17    28    29    1
    18    29    30    1
    19    29    31    1
    20     7     8    1
    21     8    10    1
    22    10    11   ar
    23    11    12   ar
    24    12    13   ar
    25    13    14   ar
    26    14    16    1
    27    16    17    2
    28    16    18    1
    29    14    15   ar
    30     8     1    1
    31    15    10   ar
    32     4     9    1
@<TRIPOS>MOLECULE
*****
 31 32 0 0 0
SMALL
GASTEIGER

@<TRIPOS>ATOM
      1 C          63.5716   84.8030   12.4663 C.2     1  UNL1        0.0707
      2 C          64.1282   84.9017   13.8557 C.2     1  UNL1        0.0283
      3 C          64.6633   83.6776   14.5380 C.3     1  UNL1        0.0470
      4 N          64.1496   86.2243   14.5629 N.pl3   1  UNL1       -0.3192
      5 C          63.6145   87.4483   13.8807 C.2     1  UNL1        0.0283
      6 C          63.6359   88.7710   14.5879 C.3     1  UNL1        0.0470
      7 C          63.0579   87.3497   12.4913 C.2     1  UNL1        0.0707
      8 C          63.0365   86.0270   11.7841 C.3     1  UNL1        0.0814
      9 H          64.5149   86.2890   15.4748 H       1  UNL1        0.1516
     10 C          62.4800   85.9284   10.3946 C.ar    1  UNL1       -0.0077
     11 C          63.1662   85.0736    9.3707 C.ar    1  UNL1       -0.0032
     12 C          62.6097   84.9749    7.9813 C.ar    1  UNL1        0.0060
     13 C          61.3669   85.7312    7.6157 C.ar    1  UNL1        0.0752
     14 C          60.6806   86.5860    8.6396 C.ar    1  UNL1        0.2898
     15 C          61.2372   86.6846   10.0291 C.ar    1  UNL1        0.0716
     16 N          59.4379   87.3422    8.2740 N.pl3   1  UNL1        0.0809
     17 O          59.4514   88.8420    8.2532 O.2     1  UNL1        0.0415
     18 O          58.1816   86.5986    7.9293 O.co2   1  UNL1       -0.5760
     19 C          63.5502   83.4804   11.7591 C.2     1  UNL1        0.3388
     20 O          64.7370   83.0411   10.9538 O.2     1  UNL1       -0.2452
     21 O          62.3420   82.5969   11.8571 O.3     1  UNL1       -0.4429
     22 C          62.4970   81.1533   12.2339 C.3     1  UNL1        0.2407
     23 C          62.2625   80.7185   13.6502 C.3     1  UNL1        0.1895
     24 C          59.7477   80.3524   14.1903 C.3     1  UNL1        0.1743
     25 O          61.0131   81.1381   14.3665 O.3     1  UNL1       -0.3471
     26 C          62.5228   88.5737   11.8090 C.2     1  UNL1        0.3386
     27 O          61.1225   89.0349   12.0858 O.2     1  UNL1       -0.2452
     28 O          63.3879   89.3365   10.8501 O.3     1  UNL1       -0.4494
     29 C          63.6026   90.8086   11.0416 C.3     1  UNL1        0.1694
     30 C          64.1043   91.3287   12.3560 C.3     1  UNL1        0.0473
     31 C          63.3155   91.7608    9.9186 C.3     1  UNL1        0.0473
@<TRIPOS>UNITY_ATOM_ATTR
16 1
charge 1
18 1
charge -1
@<TRIPOS>BOND
     1    24    25    1
     2    25    23    1
     3    23    22    1
     4    22    21    1
     5    21    19    1
     6    19    20    2
     7    19     1    1
     8     1     2    2
     9     2     3    1
    10     2     4    1
    11     4     5    1
    12     5     6    1
    13     5     7    2
    14     7    26    1
    15    26    27    2
    16    26    28    1
    17    28    29    1
    18    29    30    1
    19    29    31    1
    20     7     8    1
    21     8    10    1
    22    10    11   ar
    23    11    12   ar
    24    12    13   ar
    25    13    14   ar
    26    14    16    1
    27    16    17    2
    28    16    18    1
    29    14    15   ar
    30     8     1    1
    31    15    10   ar
    32     4     9    1
@<TRIPOS>MOLECULE
*****
 31 32 0 0 0
SMALL
GASTEIGER

@<TRIPOS>ATOM
      1 C          63.7008   86.8970   13.5254 C.2     1  UNL1        0.0707
      2 C          64.2521   85.5870   14.0050 C.2     1  UNL1        0.0283
      3 C          64.9409   85.5050   15.3350 C.3     1  UNL1        0.0470
      4 N          64.1145   84.3590   13.1546 N.pl3   1  UNL1       -0.3192
      5 C          63.4257   84.4410   11.8247 C.2     1  UNL1        0.0283
      6 C          63.2882   83.2129   10.9744 C.3     1  UNL1        0.0470
      7 C          62.8745   85.7509   11.3451 C.2     1  UNL1        0.0707
      8 C          63.0120   86.9789   12.1954 C.3     1  UNL1        0.0814
      9 H          64.4764   83.4992   13.4694 H       1  UNL1        0.1516
     10 C          62.4607   88.2889   11.7158 C.ar    1  UNL1       -0.0077
     11 C          63.3202   89.2122   10.9040 C.ar    1  UNL1       -0.0032
     12 C          62.7689   90.5221   10.4243 C.ar    1  UNL1        0.0060
     13 C          61.3582   90.9089   10.7564 C.ar    1  UNL1        0.0752
     14 C          60.4987   89.9857   11.5682 C.ar    1  UNL1        0.2898
     15 C          61.0500   88.6757   12.0479 C.ar    1  UNL1        0.0716
     16 N          59.0880   90.3724   11.9003 N.pl3   1  UNL1        0.0809
     17 O          58.1860   89.3952   12.5941 O.2     1  UNL1        0.0415
     18 O          58.5794   91.7364   11.5387 O.co2   1  UNL1       -0.5760
     19 C          63.8384   88.1250   14.3757 C.2     1  UNL1        0.3388
     20 O          63.1628   88.1906   15.7133 O.2     1  UNL1       -0.2452
     21 O          64.6515   89.2874   13.8884 O.3     1  UNL1       -0.4429
     22 C          64.6455   90.5791   14.6511 C.3     1  UNL1        0.2407
     23 C          65.6764   91.6284   14.3571 C.3     1  UNL1        0.1895
     24 C          65.5453   92.6180   11.9584 C.3     1  UNL1        0.1743
     25 O          65.3466   92.7669   13.4377 O.3     1  UNL1       -0.3471
     26 C          62.1856   85.8329   10.0151 C.2     1  UNL1        0.3386
     27 O          62.9617   85.5997    8.7529 O.2     1  UNL1       -0.2452
     28 O          60.7207   86.1482    9.9474 O.3     1  UNL1       -0.4494
     29 C          60.1415   86.7588    8.7058 C.3     1  UNL1        0.1694
     30 C          59.8682   88.2327    8.6520 C.3     1  UNL1        0.0473
     31 C          59.8356   85.8954    7.5178 C.3     1  UNL1        0.0473
@<TRIPOS>UNITY_ATOM_ATTR
16 1
charge 1
18 1
charge -1
@<TRIPOS>BOND
     1    24    25    1
     2    25    23    1
     3    23    22    1
     4    22    21    1
     5    21    19    1
     6    19    20    2
     7    19     1    1
     8     1     2    2
     9     2     3    1
    10     2     4    1
    11     4     5    1
    12     5     6    1
    13     5     7    2
    14     7    26    1
    15    26    27    2
    16    26    28    1
    17    28    29    1
    18    29    30    1
    19    29    31    1
    20     7     8    1
    21     8    10    1
    22    10    11   ar
    23    11    12   ar
    24    12    13   ar
    25    13    14   ar
    26    14    16    1
    27    16    17    2
    28    16    18    1
    29    14    15   ar
    30     8     1    1
    31    15    10   ar
    32     4     9    1
@<TRIPOS>MOLECULE
*****
 31 32 0 0 0
SMALL
GASTEIGER

@<TRIPOS>ATOM
      1 C          62.7952   87.7292   12.1685 C.2     1  UNL1        0.0707
      2 C          62.4938   86.5198   11.3339 C.2     1  UNL1        0.0283
      3 C          61.7059   86.6614   10.0653 C.3     1  UNL1        0.0470
      4 N          62.9803   85.1689   11.7678 N.pl3   1  UNL1       -0.3192
      5 C          63.7682   85.0273   13.0363 C.2     1  UNL1        0.0283
      6 C          64.2547   83.6764   13.4702 C.3     1  UNL1        0.0470
      7 C          64.0696   86.2367   13.8709 C.2     1  UNL1        0.0707
      8 C          63.5831   87.5876   13.4370 C.3     1  UNL1        0.0814
      9 H          62.7825   84.3751   11.2200 H       1  UNL1        0.1516
     10 C          63.8845   88.7970   14.2716 C.ar    1  UNL1       -0.0077
     11 C          63.1888   88.9936   15.5859 C.ar    1  UNL1       -0.0032
     12 C          63.4902   90.2029   16.4206 C.ar    1  UNL1        0.0060
     13 C          64.4873   91.2157   15.9409 C.ar    1  UNL1        0.0752
     14 C          65.1830   91.0192   14.6266 C.ar    1  UNL1        0.2898
     15 C          64.8816   89.8098   13.7920 C.ar    1  UNL1        0.0716
     16 N          66.1800   92.0320   14.1470 N.pl3   1  UNL1        0.0809
     17 O          65.8489   93.4940   14.2002 O.2     1  UNL1        0.0415
     18 O          67.5082   91.5827   13.6141 O.co2   1  UNL1       -0.5760
     19 C          62.3087   89.0801   11.7345 C.2     1  UNL1        0.3388
     20 O          63.1207   89.8966   10.7733 O.2     1  UNL1       -0.2452
     21 O          61.0101   89.6146   12.2618 O.3     1  UNL1       -0.4429
     22 C          59.7917   89.6224   11.3869 C.3     1  UNL1        0.2407
     23 C          59.8746   90.1639    9.9905 C.3     1  UNL1        0.1895
     24 C          59.5476   88.9779    7.7022 C.3     1  UNL1        0.1743
     25 O          60.4115   89.3055    8.8838 O.3     1  UNL1       -0.3471
     26 C          64.8575   86.0952   15.1395 C.2     1  UNL1        0.3386
     27 O          66.2485   86.6501   15.2242 O.2     1  UNL1       -0.2452
     28 O          64.2544   85.3987   16.3232 O.3     1  UNL1       -0.4494
     29 C          62.8222   85.6497   16.6915 C.3     1  UNL1        0.1694
     30 C          61.7214   84.9880   15.9166 C.3     1  UNL1        0.0473
     31 C          62.4907   86.5624   17.8349 C.3     1  UNL1        0.0473
@<TRIPOS>UNITY_ATOM_ATTR
16 1
charge 1
18 1
charge -1
@<TRIPOS>BOND
     1    24    25    1
     2    25    23    1
     3    23    22    1
     4    22    21    1
     5    21    19    1
     6    19    20    2
     7    19     1    1
     8     1     2    2
     9     2     3    1
    10     2     4    1
    11     4     5    1
    12     5     6    1
    13     5     7    2
    14     7    26    1
    15    26    27    2
    16    26    28    1
    17    28    29    1
    18    29    30    1
    19    29    31    1
    20     7     8    1
    21     8    10    1
    22    10    11   ar
    23    11    12   ar
    24    12    13   ar
    25    13    14   ar
    26    14    16    1
    27    16    17    2
    28    16    18    1
    29    14    15   ar
    30     8     1    1
    31    15    10   ar
    32     4     9    1
@<TRIPOS>MOLECULE
*****
 31 32 0 0 0
SMALL
GASTEIGER

@<TRIPOS>ATOM
      1 C          64.0501   84.5483   12.9819 C.2     1  UNL1        0.0707
      2 C          63.9968   83.6116   11.8115 C.2     1  UNL1        0.0283
      3 C          64.6591   82.2682   11.8953 C.3     1  UNL1        0.0470
      4 N          63.2812   84.0181   10.5575 N.pl3   1  UNL1       -0.3192
      5 C          62.6189   85.3613   10.4737 C.2     1  UNL1        0.0283
      6 C          61.9034   85.7678    9.2196 C.3     1  UNL1        0.0470
      7 C          62.6722   86.2980   11.6440 C.2     1  UNL1        0.0707
      8 C          63.3878   85.8915   12.8981 C.3     1  UNL1        0.0814
      9 H          63.2463   83.4033    9.7893 H       1  UNL1        0.1516
     10 C          63.4410   86.8283   14.0685 C.ar    1  UNL1       -0.0077
     11 C          63.0627   86.3421   15.4361 C.ar    1  UNL1       -0.0032
     12 C          63.1160   87.2788   16.6064 C.ar    1  UNL1        0.0060
     13 C          63.5475   88.7018   16.4091 C.ar    1  UNL1        0.0752
     14 C          63.9258   89.1880   15.0415 C.ar    1  UNL1        0.2898
     15 C          63.8726   88.2512   13.8711 C.ar    1  UNL1        0.0716
     16 N          64.3574   90.6110   14.8441 N.pl3   1  UNL1        0.0809
     17 O          65.3132   90.9588   13.7417 O.2     1  UNL1        0.0415
     18 O          63.8331   91.6860   15.7493 O.co2   1  UNL1       -0.5760
     19 C          64.7656   84.1417   14.2359 C.2     1  UNL1        0.3388
     20 O          66.1241   84.7009   14.5392 O.2     1  UNL1       -0.2452
     21 O          64.1227   83.1761   15.1868 O.3     1  UNL1       -0.4429
     22 C          62.6295   83.0382   15.2203 C.3     1  UNL1        0.2407
     23 C          61.9611   81.9323   14.4585 C.3     1  UNL1        0.1895
     24 C          62.3314   79.7538   13.0922 C.3     1  UNL1        0.1743
     25 O          62.6630   80.6200   14.2710 O.3     1  UNL1       -0.3471
     26 C          62.0099   87.6413   11.5603 C.2     1  UNL1        0.3386
     27 O          60.5334   87.7654   11.7937 O.2     1  UNL1       -0.2452
     28 O          62.8242   88.8605   11.2431 O.3     1  UNL1       -0.4494
     29 C          62.3008   89.8815   10.2769 C.3     1  UNL1        0.1694
     30 C          61.0941   89.5735    9.4408 C.3     1  UNL1        0.0473
     31 C          62.9840   91.2106   10.1469 C.3     1  UNL1        0.0473
@<TRIPOS>UNITY_ATOM_ATTR
16 1
charge 1
18 1
charge -1
@<TRIPOS>BOND
     1    24    25    1
     2    25    23    1
     3    23    22    1
     4    22    21    1
     5    21    19    1
     6    19    20    2
     7    19     1    1
     8     1     2    2
     9     2     3    1
    10     2     4    1
    11     4     5    1
    12     5     6    1
    13     5     7    2
    14     7    26    1
    15    26    27    2
    16    26    28    1
    17    28    29    1
    18    29    30    1
    19    29    31    1
    20     7     8    1
    21     8    10    1
    22    10    11   ar
    23    11    12   ar
    24    12    13   ar
    25    13    14   ar
    26    14    16    1
    27    16    17    2
    28    16    18    1
    29    14    15   ar
    30     8     1    1
    31    15    10   ar
    32     4     9    1
