@<TRIPOS>MOLECULE
*****
 48 52 0 0 0
SMALL
GASTEIGER

@<TRIPOS>ATOM
      1 N          61.1075   87.2763    9.0424 N.am    1  UNL1       -0.2541
      2 C          60.0587   87.1102    7.9830 C.2     1  UNL1        0.2456
      3 O          59.7359   85.7439    7.4548 O.2     1  UNL1       -0.2730
      4 C          59.3326   88.3105    7.4517 C.3     1  UNL1        0.1555
      5 N          59.6553   89.6768    7.9799 N.3     1  UNL1       -0.2883
      6 C          60.7041   89.8429    9.0393 C.3     1  UNL1        0.0932
      7 C          61.4302   88.6427    9.5706 C.3     1  UNL1        0.1390
      8 H          58.7891   90.0574    8.3609 H       1  UNL1        0.1237
      9 C          63.2857   83.6756   10.6363 C.ar    1  UNL1        0.1386
     10 C          62.3338   84.4276   11.5184 C.ar    1  UNL1        0.0382
     11 C          61.6077   85.6278   10.9872 C.ar    1  UNL1        0.0180
     12 C          61.8336   86.0761    9.5737 C.ar    1  UNL1        0.0542
     13 C          62.7855   85.3242    8.6915 C.ar    1  UNL1        0.0180
     14 C          63.5116   84.1240    9.2228 C.ar    1  UNL1        0.0382
     15 O          64.0118   82.4754   11.1675 O.3     1  UNL1       -0.4754
     16 C          63.4115   81.1089   11.0184 C.3     1  UNL1        0.2080
     17 C          62.7723   80.4378   12.1978 C.3     1  UNL1        0.0794
     18 C          61.9258   81.2342   13.1462 C.3     1  UNL1        0.1465
     19 O          62.4124   81.5056   14.5388 O.3     1  UNL1       -0.3488
     20 C          62.2282   82.8647   15.1462 C.3     1  UNL1        0.1716
     21 C          63.2197   85.1722   15.8111 C.ar    1  UNL1        0.1370
     22 C          64.3159   86.1916   15.7148 C.ar    1  UNL1        0.0367
     23 C          65.5168   85.9227   14.8573 C.ar    1  UNL1        0.0031
     24 C          65.6216   84.6345   14.0960 C.ar    1  UNL1       -0.0000
     25 C          64.5254   83.6151   14.1922 C.ar    1  UNL1        0.0012
     26 C          63.3244   83.8840   15.0499 C.ar    1  UNL1        0.0413
     27 C          62.0639   86.5259   17.7037 C.3     1  UNL1        0.2525
     28 O          62.0187   85.4411   16.6687 O.3     1  UNL1       -0.4717
     29 C          62.4790   88.8088   10.6300 C.3     1  UNL1        0.2267
     30 O          62.1204   89.4231   11.9506 O.3     1  UNL1       -0.4736
     31 C          63.1881   90.0371   12.8069 C.ar    1  UNL1        0.1398
     32 C          63.5306   89.4247   14.1327 C.ar    1  UNL1        0.0367
     33 C          64.5983   90.0387   14.9889 C.ar    1  UNL1        0.0001
     34 C          65.3234   91.2649   14.5193 C.ar    1  UNL1       -0.0086
     35 C          64.9809   91.8773   13.1936 C.ar    1  UNL1        0.0469
     36 C          63.9132   91.2633   12.3374 C.ar    1  UNL1        0.0511
     37 N          65.7060   93.1035   12.7240 N.pl3   1  UNL1       -0.3043
     38 C          66.7736   93.7175   13.5802 C.3     1  UNL1        0.0912
     39 C          67.1162   93.1052   14.9061 C.3     1  UNL1        0.0261
     40 C          66.3911   91.8789   15.3756 C.3     1  UNL1        0.0294
     41 C          65.3635   93.7158   11.3983 C.3     1  UNL1        0.1386
     42 C          66.0763   94.9523   10.9366 C.3     1  UNL1        0.2297
     43 O          67.4801   94.8586   10.4165 O.3     1  UNL1       -0.4466
     44 C          67.7792   94.0153    9.2126 C.2     1  UNL1        0.3165
     45 O          67.4711   94.5331    7.8389 O.2     1  UNL1       -0.2501
     46 C          68.3864   92.6543    9.3823 C.3     1  UNL1        0.0991
     47 C          68.3554   91.9810   10.7224 C.3     1  UNL1        0.0116
     48 C          69.0245   91.9664    8.2120 C.3     1  UNL1        0.0116
@<TRIPOS>BOND
     1    27    28    1
     2    28    21    1
     3    21    22   ar
     4    22    23   ar
     5    23    24   ar
     6    24    25   ar
     7    25    26   ar
     8    26    20    1
     9    20    19    1
    10    19    18    1
    11    18    17    1
    12    17    16    1
    13    16    15    1
    14    15     9    1
    15     9    10   ar
    16    10    11   ar
    17    11    12   ar
    18    12     1    1
    19     1     2   am
    20     2     3    2
    21     2     4    1
    22     4     5    1
    23     5     6    1
    24     6     7    1
    25     7    29    1
    26    29    30    1
    27    30    31    1
    28    31    32   ar
    29    32    33   ar
    30    33    34   ar
    31    34    35   ar
    32    35    36   ar
    33    35    37    1
    34    37    41    1
    35    41    42    1
    36    42    43    1
    37    43    44    1
    38    44    45    2
    39    44    46    1
    40    46    47    1
    41    46    48    1
    42    37    38    1
    43    38    39    1
    44    39    40    1
    45    12    13   ar
    46    13    14   ar
    47    26    21   ar
    48    14     9   ar
    49     7     1    1
    50    36    31   ar
    51    40    34    1
    52     5     8    1
@<TRIPOS>MOLECULE
*****
 48 52 0 0 0
SMALL
GASTEIGER

@<TRIPOS>ATOM
      1 N          61.2252   88.4773    9.5680 N.am    1  UNL1       -0.2541
      2 C          60.0188   89.0709    8.9031 C.2     1  UNL1        0.2456
      3 O          59.5971   90.4732    9.2283 O.2     1  UNL1       -0.2730
      4 C          59.2340   88.2622    7.9131 C.3     1  UNL1        0.1555
      5 N          59.6557   86.8600    7.5879 N.3     1  UNL1       -0.2883
      6 C          60.8622   86.2664    8.2527 C.3     1  UNL1        0.0932
      7 C          61.6469   87.0750    9.2428 C.3     1  UNL1        0.1390
      8 H          59.8286   86.8300    6.5831 H       1  UNL1        0.1237
      9 C          63.5795   90.9033   12.5381 C.ar    1  UNL1        0.1386
     10 C          63.6916   91.1986   11.0718 C.ar    1  UNL1        0.0382
     11 C          62.9068   90.3900   10.0817 C.ar    1  UNL1        0.0180
     12 C          62.0100   89.2860   10.5580 C.ar    1  UNL1        0.0542
     13 C          61.8980   88.9906   12.0243 C.ar    1  UNL1        0.0180
     14 C          62.6827   89.7993   13.0144 C.ar    1  UNL1        0.0382
     15 O          64.3643   91.7120   13.5282 O.3     1  UNL1       -0.4754
     16 C          65.4562   91.0649   14.3276 C.3     1  UNL1        0.2080
     17 C          66.4647   91.9131   15.0440 C.3     1  UNL1        0.0794
     18 C          67.3384   92.8548   14.2694 C.3     1  UNL1        0.1465
     19 O          66.7593   94.1129   13.6932 O.3     1  UNL1       -0.3488
     20 C          66.0597   94.0776   12.3669 C.3     1  UNL1        0.1716
     21 C          67.1014   94.7913   10.0963 C.ar    1  UNL1        0.1370
     22 C          67.8674   94.4475    8.8533 C.ar    1  UNL1        0.0367
     23 C          68.3577   93.0464    8.6378 C.ar    1  UNL1        0.0031
     24 C          68.0820   91.9889    9.6654 C.ar    1  UNL1       -0.0000
     25 C          67.3160   92.3327   10.9084 C.ar    1  UNL1        0.0012
     26 C          66.8257   93.7339   11.1238 C.ar    1  UNL1        0.0413
     27 C          65.2577   96.5991    9.8091 C.3     1  UNL1        0.2525
     28 O          66.6112   96.1925   10.3118 O.3     1  UNL1       -0.4717
     29 C          62.8534   86.4814    9.9076 C.3     1  UNL1        0.2267
     30 O          63.4356   85.1970    9.3964 O.3     1  UNL1       -0.4736
     31 C          63.2687   83.9317   10.1846 C.ar    1  UNL1        0.1398
     32 C          63.5194   82.6039    9.5336 C.ar    1  UNL1        0.0367
     33 C          63.3525   81.3387   10.3218 C.ar    1  UNL1        0.0001
     34 C          62.9348   81.4013   11.7611 C.ar    1  UNL1       -0.0086
     35 C          62.6841   82.7291   12.4122 C.ar    1  UNL1        0.0469
     36 C          62.8510   83.9943   11.6240 C.ar    1  UNL1        0.0511
     37 N          62.2664   82.7917   13.8515 N.pl3   1  UNL1       -0.3043
     38 C          62.0995   81.5265   14.6397 C.3     1  UNL1        0.0912
     39 C          62.3502   80.1986   13.9886 C.3     1  UNL1        0.0261
     40 C          62.7679   80.1360   12.5493 C.3     1  UNL1        0.0294
     41 C          62.0157   84.1195   14.5026 C.3     1  UNL1        0.1386
     42 C          62.5172   84.3801   15.8921 C.3     1  UNL1        0.2297
     43 O          63.7532   85.2038   16.1011 O.3     1  UNL1       -0.4466
     44 C          63.7102   86.6881   15.8886 C.2     1  UNL1        0.3165
     45 O          64.2318   87.2784   14.6121 O.2     1  UNL1       -0.2501
     46 C          63.1456   87.5820   16.9526 C.3     1  UNL1        0.0991
     47 C          63.0558   89.0611   16.7196 C.3     1  UNL1        0.0116
     48 C          62.6708   86.9969   18.2496 C.3     1  UNL1        0.0116
@<TRIPOS>BOND
     1    27    28    1
     2    28    21    1
     3    21    22   ar
     4    22    23   ar
     5    23    24   ar
     6    24    25   ar
     7    25    26   ar
     8    26    20    1
     9    20    19    1
    10    19    18    1
    11    18    17    1
    12    17    16    1
    13    16    15    1
    14    15     9    1
    15     9    10   ar
    16    10    11   ar
    17    11    12   ar
    18    12     1    1
    19     1     2   am
    20     2     3    2
    21     2     4    1
    22     4     5    1
    23     5     6    1
    24     6     7    1
    25     7    29    1
    26    29    30    1
    27    30    31    1
    28    31    32   ar
    29    32    33   ar
    30    33    34   ar
    31    34    35   ar
    32    35    36   ar
    33    35    37    1
    34    37    41    1
    35    41    42    1
    36    42    43    1
    37    43    44    1
    38    44    45    2
    39    44    46    1
    40    46    47    1
    41    46    48    1
    42    37    38    1
    43    38    39    1
    44    39    40    1
    45    12    13   ar
    46    13    14   ar
    47    26    21   ar
    48    14     9   ar
    49     7     1    1
    50    36    31   ar
    51    40    34    1
    52     5     8    1
@<TRIPOS>MOLECULE
*****
 48 52 0 0 0
SMALL
GASTEIGER

@<TRIPOS>ATOM
      1 N          65.4611   91.4096   13.7116 N.am    1  UNL1       -0.2541
      2 C          66.8856   91.7796   14.0008 C.2     1  UNL1        0.2456
      3 O          67.5675   91.2396   15.2229 O.2     1  UNL1       -0.2730
      4 C          67.6283   92.6896   13.0679 C.3     1  UNL1        0.1555
      5 N          66.9465   93.2296   11.8459 N.3     1  UNL1       -0.2883
      6 C          65.5219   92.8596   11.5567 C.3     1  UNL1        0.0932
      7 C          64.7792   91.9495   12.4896 C.3     1  UNL1        0.1390
      8 H          67.4981   92.9271   11.0430 H       1  UNL1        0.1237
      9 C          63.2329   88.6795   16.5102 C.ar    1  UNL1        0.1386
     10 C          63.2846   90.1535   16.7833 C.ar    1  UNL1        0.0382
     11 C          64.0274   91.0635   15.8505 C.ar    1  UNL1        0.0180
     12 C          64.7184   90.4995   14.6445 C.ar    1  UNL1        0.0542
     13 C          64.6667   89.0256   14.3714 C.ar    1  UNL1        0.0180
     14 C          63.9240   88.1155   15.3043 C.ar    1  UNL1        0.0382
     15 O          62.4902   87.7695   17.4431 O.3     1  UNL1       -0.4754
     16 C          62.8693   86.3213   17.5382 C.3     1  UNL1        0.2080
     17 C          62.2326   85.3177   16.6232 C.3     1  UNL1        0.0794
     18 C          63.0902   84.4297   15.7710 C.3     1  UNL1        0.1465
     19 O          63.6229   84.9331   14.4623 O.3     1  UNL1       -0.3488
     20 C          62.8034   84.7902   13.2141 C.3     1  UNL1        0.1716
     21 C          62.5943   82.2621   12.6528 C.ar    1  UNL1        0.1370
     22 C          62.8421   81.1137   11.7202 C.ar    1  UNL1        0.0367
     23 C          63.5468   81.3449   10.4165 C.ar    1  UNL1        0.0031
     24 C          64.0038   82.7245   10.0452 C.ar    1  UNL1       -0.0000
     25 C          63.7559   83.8730   10.9777 C.ar    1  UNL1        0.0012
     26 C          63.0512   83.6418   12.2816 C.ar    1  UNL1        0.0413
     27 C          60.9383   80.8802   14.1012 C.3     1  UNL1        0.2525
     28 O          61.8895   82.0309   13.9566 O.3     1  UNL1       -0.4717
     29 C          63.3546   91.5795   12.2003 C.3     1  UNL1        0.2267
     30 O          62.9099   91.3573   10.7851 O.3     1  UNL1       -0.4736
     31 C          62.3407   90.0307   10.3774 C.ar    1  UNL1        0.1398
     32 C          62.7707   88.7804   11.0857 C.ar    1  UNL1        0.0367
     33 C          62.2014   87.4539   10.6779 C.ar    1  UNL1        0.0001
     34 C          61.2022   87.3777    9.5618 C.ar    1  UNL1       -0.0086
     35 C          60.7722   88.6280    8.8534 C.ar    1  UNL1        0.0469
     36 C          61.3415   89.9545    9.2612 C.ar    1  UNL1        0.0511
     37 N          59.7730   88.5518    7.7373 N.pl3   1  UNL1       -0.3043
     38 C          59.2037   87.2253    7.3295 C.3     1  UNL1        0.0912
     39 C          59.6337   85.9749    8.0379 C.3     1  UNL1        0.0261
     40 C          60.6329   86.0511    9.1540 C.3     1  UNL1        0.0294
     41 C          59.3430   89.8021    7.0290 C.3     1  UNL1        0.1386
     42 C          59.6890   90.0018    5.5831 C.3     1  UNL1        0.2297
     43 O          60.3993   91.2489    5.1472 O.3     1  UNL1       -0.4466
     44 C          59.7890   92.1325    4.1000 C.2     1  UNL1        0.3165
     45 O          58.3132   92.4005    4.1119 O.2     1  UNL1       -0.2501
     46 C          60.6544   92.7482    3.0408 C.3     1  UNL1        0.0991
     47 C          60.1274   93.8756    2.2034 C.3     1  UNL1        0.0116
     48 C          62.0470   92.2365    2.8191 C.3     1  UNL1        0.0116
@<TRIPOS>BOND
     1    27    28    1
     2    28    21    1
     3    21    22   ar
     4    22    23   ar
     5    23    24   ar
     6    24    25   ar
     7    25    26   ar
     8    26    20    1
     9    20    19    1
    10    19    18    1
    11    18    17    1
    12    17    16    1
    13    16    15    1
    14    15     9    1
    15     9    10   ar
    16    10    11   ar
    17    11    12   ar
    18    12     1    1
    19     1     2   am
    20     2     3    2
    21     2     4    1
    22     4     5    1
    23     5     6    1
    24     6     7    1
    25     7    29    1
    26    29    30    1
    27    30    31    1
    28    31    32   ar
    29    32    33   ar
    30    33    34   ar
    31    34    35   ar
    32    35    36   ar
    33    35    37    1
    34    37    41    1
    35    41    42    1
    36    42    43    1
    37    43    44    1
    38    44    45    2
    39    44    46    1
    40    46    47    1
    41    46    48    1
    42    37    38    1
    43    38    39    1
    44    39    40    1
    45    12    13   ar
    46    13    14   ar
    47    26    21   ar
    48    14     9   ar
    49     7     1    1
    50    36    31   ar
    51    40    34    1
    52     5     8    1
@<TRIPOS>MOLECULE
*****
 48 52 0 0 0
SMALL
GASTEIGER

@<TRIPOS>ATOM
      1 N          60.9943   87.3521    8.9685 N.am    1  UNL1       -0.2541
      2 C          60.0033   87.0828    7.8752 C.2     1  UNL1        0.2456
      3 O          59.7459   85.6749    7.4262 O.2     1  UNL1       -0.2730
      4 C          59.2697   88.2214    7.2308 C.3     1  UNL1        0.1555
      5 N          59.5270   89.6293    7.6797 N.3     1  UNL1       -0.2883
      6 C          60.5180   89.8986    8.7730 C.3     1  UNL1        0.0932
      7 C          61.2516   88.7600    9.4174 C.3     1  UNL1        0.1390
      8 H          58.6327   90.0065    7.9934 H       1  UNL1        0.1237
      9 C          63.1952   83.9362   10.9018 C.ar    1  UNL1        0.1386
     10 C          62.1557   84.6921   11.6750 C.ar    1  UNL1        0.0382
     11 C          61.4220   85.8307   11.0306 C.ar    1  UNL1        0.0180
     12 C          61.7279   86.2135    9.6129 C.ar    1  UNL1        0.0542
     13 C          62.7675   85.4576    8.8397 C.ar    1  UNL1        0.0180
     14 C          63.5011   84.3190    9.4841 C.ar    1  UNL1        0.0382
     15 O          63.9289   82.7976   11.5462 O.3     1  UNL1       -0.4754
     16 C          63.2574   81.4654   11.7026 C.3     1  UNL1        0.2080
     17 C          63.0065   80.9082   13.0725 C.3     1  UNL1        0.0794
     18 C          62.1757   81.6791   14.0551 C.3     1  UNL1        0.1465
     19 O          62.5010   83.1134   14.3499 O.3     1  UNL1       -0.3488
     20 C          62.7477   83.5514   15.7631 C.3     1  UNL1        0.1716
     21 C          63.8947   85.8184   15.2200 C.ar    1  UNL1        0.1370
     22 C          64.1139   87.2700   15.5279 C.ar    1  UNL1        0.0367
     23 C          63.4053   87.9062   16.6868 C.ar    1  UNL1        0.0031
     24 C          62.4774   87.0908   17.5378 C.ar    1  UNL1       -0.0000
     25 C          62.2582   85.6392   17.2299 C.ar    1  UNL1        0.0012
     26 C          62.9669   85.0030   16.0710 C.ar    1  UNL1        0.0413
     27 C          65.8131   84.3279   14.2991 C.3     1  UNL1        0.2525
     28 O          64.6034   85.1822   14.0611 O.3     1  UNL1       -0.4717
     29 C          62.2426   89.0293   10.5108 C.3     1  UNL1        0.2267
     30 O          62.7053   90.4315   10.7750 O.3     1  UNL1       -0.4736
     31 C          63.3676   90.7698   12.0777 C.ar    1  UNL1        0.1398
     32 C          62.9355   90.0832   13.3393 C.ar    1  UNL1        0.0367
     33 C          63.5979   90.4215   14.6419 C.ar    1  UNL1        0.0001
     34 C          64.6923   91.4465   14.6829 C.ar    1  UNL1       -0.0086
     35 C          65.1244   92.1331   13.4212 C.ar    1  UNL1        0.0469
     36 C          64.4621   91.7948   12.1186 C.ar    1  UNL1        0.0511
     37 N          66.2188   93.1581   13.4622 N.pl3   1  UNL1       -0.3043
     38 C          66.8811   93.4964   14.7648 C.3     1  UNL1        0.0912
     39 C          66.4491   92.8098   16.0265 C.3     1  UNL1        0.0261
     40 C          65.3546   91.7848   15.9856 C.3     1  UNL1        0.0294
     41 C          66.6509   93.8447   12.2005 C.3     1  UNL1        0.1386
     42 C          66.8946   93.0433   10.9562 C.3     1  UNL1        0.2297
     43 O          66.3265   93.5014    9.6458 O.3     1  UNL1       -0.4466
     44 C          67.0842   94.4831    8.8019 C.2     1  UNL1        0.3165
     45 O          68.2100   94.0109    7.9304 O.2     1  UNL1       -0.2501
     46 C          66.7162   95.9370    8.8295 C.3     1  UNL1        0.0991
     47 C          67.2080   96.8558    7.7506 C.3     1  UNL1        0.0116
     48 C          65.8563   96.4721    9.9360 C.3     1  UNL1        0.0116
@<TRIPOS>BOND
     1    27    28    1
     2    28    21    1
     3    21    22   ar
     4    22    23   ar
     5    23    24   ar
     6    24    25   ar
     7    25    26   ar
     8    26    20    1
     9    20    19    1
    10    19    18    1
    11    18    17    1
    12    17    16    1
    13    16    15    1
    14    15     9    1
    15     9    10   ar
    16    10    11   ar
    17    11    12   ar
    18    12     1    1
    19     1     2   am
    20     2     3    2
    21     2     4    1
    22     4     5    1
    23     5     6    1
    24     6     7    1
    25     7    29    1
    26    29    30    1
    27    30    31    1
    28    31    32   ar
    29    32    33   ar
    30    33    34   ar
    31    34    35   ar
    32    35    36   ar
    33    35    37    1
    34    37    41    1
    35    41    42    1
    36    42    43    1
    37    43    44    1
    38    44    45    2
    39    44    46    1
    40    46    47    1
    41    46    48    1
    42    37    38    1
    43    38    39    1
    44    39    40    1
    45    12    13   ar
    46    13    14   ar
    47    26    21   ar
    48    14     9   ar
    49     7     1    1
    50    36    31   ar
    51    40    34    1
    52     5     8    1
@<TRIPOS>MOLECULE
*****
 48 52 0 0 0
SMALL
GASTEIGER

@<TRIPOS>ATOM
      1 N          62.8498   86.3178   12.2100 N.am    1  UNL1       -0.2541
      2 C          63.0474   84.8953   12.6428 C.2     1  UNL1        0.2456
      3 O          62.4102   83.7801   11.8678 O.2     1  UNL1       -0.2730
      4 C          63.8823   84.5878   13.8504 C.3     1  UNL1        0.1555
      5 N          64.5195   85.7028   14.6254 N.3     1  UNL1       -0.2883
      6 C          64.3219   87.1254   14.1926 C.3     1  UNL1        0.0932
      7 C          63.4871   87.4328   12.9849 C.3     1  UNL1        0.1390
      8 H          65.5247   85.5297   14.6179 H       1  UNL1        0.1237
      9 C          60.3454   87.2403    8.5869 C.ar    1  UNL1        0.1386
     10 C          61.5898   86.4145    8.4480 C.ar    1  UNL1        0.0382
     11 C          62.4246   86.1070    9.6557 C.ar    1  UNL1        0.0180
     12 C          62.0150   86.6253   11.0023 C.ar    1  UNL1        0.0542
     13 C          60.7706   87.4511   11.1413 C.ar    1  UNL1        0.0180
     14 C          59.9357   87.7586    9.9336 C.ar    1  UNL1        0.0382
     15 O          59.5105   87.5477    7.3792 O.3     1  UNL1       -0.4754
     16 C          58.9947   88.9388    7.1585 C.3     1  UNL1        0.2080
     17 C          59.4603   89.7322    5.9737 C.3     1  UNL1        0.0794
     18 C          58.6486   90.8944    5.4834 C.3     1  UNL1        0.1465
     19 O          59.3333   92.1516    5.0355 O.3     1  UNL1       -0.3488
     20 C          59.4022   92.4888    3.5755 C.3     1  UNL1        0.1716
     21 C          60.8757   93.8249    1.9042 C.ar    1  UNL1        0.1370
     22 C          62.2045   94.0712    1.2532 C.ar    1  UNL1        0.0367
     23 C          63.3885   93.2277    1.6227 C.ar    1  UNL1        0.0031
     24 C          63.2438   92.1379    2.6432 C.ar    1  UNL1       -0.0000
     25 C          61.9150   91.8915    3.2941 C.ar    1  UNL1        0.0012
     26 C          60.7310   92.7351    2.9246 C.ar    1  UNL1        0.0413
     27 C          59.4899   95.0951    0.1108 C.3     1  UNL1        0.2525
     28 O          59.6917   94.6685    1.5346 O.3     1  UNL1       -0.4717
     29 C          63.2895   88.8555   12.5522 C.3     1  UNL1        0.2267
     30 O          62.9231   89.9025   13.5618 O.3     1  UNL1       -0.4736
     31 C          63.9994   90.6668   14.2741 C.ar    1  UNL1        0.1398
     32 C          63.7715   91.1554   15.6738 C.ar    1  UNL1        0.0367
     33 C          64.8478   91.9197   16.3860 C.ar    1  UNL1        0.0001
     34 C          66.1521   92.1954   15.6985 C.ar    1  UNL1       -0.0086
     35 C          66.3801   91.7069   14.2988 C.ar    1  UNL1        0.0469
     36 C          65.3038   90.9426   13.5866 C.ar    1  UNL1        0.0511
     37 N          67.6844   91.9827   13.6113 N.pl3   1  UNL1       -0.3043
     38 C          68.7608   92.7469   14.3235 C.3     1  UNL1        0.0912
     39 C          68.5328   93.2355   15.7233 C.3     1  UNL1        0.0261
     40 C          67.2285   92.9598   16.4108 C.3     1  UNL1        0.0294
     41 C          67.9124   91.4941   12.2115 C.3     1  UNL1        0.1386
     42 C          67.8677   92.4589   11.0638 C.3     1  UNL1        0.2297
     43 O          66.5809   93.1431   10.7089 O.3     1  UNL1       -0.4466
     44 C          66.3260   94.5474   11.1705 C.2     1  UNL1        0.3165
     45 O          66.1779   94.8405   12.6341 O.2     1  UNL1       -0.2501
     46 C          66.2193   95.6585   10.1686 C.3     1  UNL1        0.0991
     47 C          67.2972   95.8499    9.1431 C.3     1  UNL1        0.0116
     48 C          65.0346   96.5783   10.1920 C.3     1  UNL1        0.0116
@<TRIPOS>BOND
     1    27    28    1
     2    28    21    1
     3    21    22   ar
     4    22    23   ar
     5    23    24   ar
     6    24    25   ar
     7    25    26   ar
     8    26    20    1
     9    20    19    1
    10    19    18    1
    11    18    17    1
    12    17    16    1
    13    16    15    1
    14    15     9    1
    15     9    10   ar
    16    10    11   ar
    17    11    12   ar
    18    12     1    1
    19     1     2   am
    20     2     3    2
    21     2     4    1
    22     4     5    1
    23     5     6    1
    24     6     7    1
    25     7    29    1
    26    29    30    1
    27    30    31    1
    28    31    32   ar
    29    32    33   ar
    30    33    34   ar
    31    34    35   ar
    32    35    36   ar
    33    35    37    1
    34    37    41    1
    35    41    42    1
    36    42    43    1
    37    43    44    1
    38    44    45    2
    39    44    46    1
    40    46    47    1
    41    46    48    1
    42    37    38    1
    43    38    39    1
    44    39    40    1
    45    12    13   ar
    46    13    14   ar
    47    26    21   ar
    48    14     9   ar
    49     7     1    1
    50    36    31   ar
    51    40    34    1
    52     5     8    1
@<TRIPOS>MOLECULE
*****
 48 52 0 0 0
SMALL
GASTEIGER

@<TRIPOS>ATOM
      1 N          63.1649   81.8382   12.5819 N.am    1  UNL1       -0.2541
      2 C          62.7715   80.4864   13.0996 C.2     1  UNL1        0.2456
      3 O          62.5327   80.2856   14.5668 O.2     1  UNL1       -0.2730
      4 C          62.6170   79.3355   12.1501 C.3     1  UNL1        0.1555
      5 N          62.8558   79.5363   10.6830 N.3     1  UNL1       -0.2883
      6 C          63.2492   80.8880   10.1653 C.3     1  UNL1        0.0932
      7 C          63.4037   82.0390   11.1147 C.3     1  UNL1        0.1390
      8 H          61.9919   79.2783   10.2060 H       1  UNL1        0.1237
      9 C          63.6286   85.2910   15.4303 C.ar    1  UNL1        0.1386
     10 C          62.2874   84.6447   15.2471 C.ar    1  UNL1        0.0382
     11 C          62.1329   83.4937   14.2977 C.ar    1  UNL1        0.0180
     12 C          63.3195   82.9891   13.5314 C.ar    1  UNL1        0.0542
     13 C          64.6606   83.6354   13.7145 C.ar    1  UNL1        0.0180
     14 C          64.8151   84.7863   14.6639 C.ar    1  UNL1        0.0382
     15 O          63.7831   86.4419   16.3797 O.3     1  UNL1       -0.4754
     16 C          63.8640   87.8437   15.8522 C.3     1  UNL1        0.2080
     17 C          63.1079   88.9460   16.5328 C.3     1  UNL1        0.0794
     18 C          63.5134   90.3748   16.3222 C.3     1  UNL1        0.1465
     19 O          63.4121   90.9899   14.9579 O.3     1  UNL1       -0.3488
     20 C          64.4575   90.6961   13.9232 C.3     1  UNL1        0.1716
     21 C          65.7739   92.8958   13.5007 C.ar    1  UNL1        0.1370
     22 C          66.2302   93.9778   12.5673 C.ar    1  UNL1        0.0367
     23 C          65.8265   93.9420   11.1231 C.ar    1  UNL1        0.0031
     24 C          64.9664   92.8242   10.6122 C.ar    1  UNL1       -0.0000
     25 C          64.5101   91.7423   11.5456 C.ar    1  UNL1        0.0012
     26 C          64.9138   91.7781   12.9898 C.ar    1  UNL1        0.0413
     27 C          67.6277   93.0290   15.3161 C.3     1  UNL1        0.2525
     28 O          66.1776   92.9317   14.9449 O.3     1  UNL1       -0.4717
     29 C          63.7971   83.3907   10.5970 C.3     1  UNL1        0.2267
     30 O          62.7919   84.2396    9.8766 O.3     1  UNL1       -0.4736
     31 C          62.4781   85.6183   10.3773 C.ar    1  UNL1        0.1398
     32 C          63.0556   86.0935   11.6775 C.ar    1  UNL1        0.0367
     33 C          62.7418   87.4722   12.1782 C.ar    1  UNL1        0.0001
     34 C          61.8504   88.3756   11.3787 C.ar    1  UNL1       -0.0086
     35 C          61.2729   87.9004   10.0785 C.ar    1  UNL1        0.0469
     36 C          61.5867   86.5218    9.5778 C.ar    1  UNL1        0.0511
     37 N          60.3815   88.8039    9.2790 N.pl3   1  UNL1       -0.3043
     38 C          60.0676   90.1825    9.7797 C.3     1  UNL1        0.0912
     39 C          60.6452   90.6578   11.0800 C.3     1  UNL1        0.0261
     40 C          61.5366   89.7544   11.8795 C.3     1  UNL1        0.0294
     41 C          59.8039   88.3286    7.9788 C.3     1  UNL1        0.1386
     42 C          59.0984   89.2947    7.0739 C.3     1  UNL1        0.2297
     43 O          59.7925   89.8232    5.8537 O.3     1  UNL1       -0.4466
     44 C          59.2854   91.0642    5.1808 C.2     1  UNL1        0.3165
     45 O          57.8609   91.4929    5.3729 O.2     1  UNL1       -0.2501
     46 C          60.2029   91.8765    4.3157 C.3     1  UNL1        0.0991
     47 C          61.6599   91.5296    4.2348 C.3     1  UNL1        0.0116
     48 C          59.6632   93.0358    3.5315 C.3     1  UNL1        0.0116
@<TRIPOS>BOND
     1    27    28    1
     2    28    21    1
     3    21    22   ar
     4    22    23   ar
     5    23    24   ar
     6    24    25   ar
     7    25    26   ar
     8    26    20    1
     9    20    19    1
    10    19    18    1
    11    18    17    1
    12    17    16    1
    13    16    15    1
    14    15     9    1
    15     9    10   ar
    16    10    11   ar
    17    11    12   ar
    18    12     1    1
    19     1     2   am
    20     2     3    2
    21     2     4    1
    22     4     5    1
    23     5     6    1
    24     6     7    1
    25     7    29    1
    26    29    30    1
    27    30    31    1
    28    31    32   ar
    29    32    33   ar
    30    33    34   ar
    31    34    35   ar
    32    35    36   ar
    33    35    37    1
    34    37    41    1
    35    41    42    1
    36    42    43    1
    37    43    44    1
    38    44    45    2
    39    44    46    1
    40    46    47    1
    41    46    48    1
    42    37    38    1
    43    38    39    1
    44    39    40    1
    45    12    13   ar
    46    13    14   ar
    47    26    21   ar
    48    14     9   ar
    49     7     1    1
    50    36    31   ar
    51    40    34    1
    52     5     8    1
