@<TRIPOS>MOLECULE
*****
 27 30 0 0 0
SMALL
GASTEIGER

@<TRIPOS>ATOM
      1 C          71.7458   69.4468   17.1092 C.2     1  UNL1        0.1203
      2 C          71.0862   70.1095   18.2822 C.2     1  UNL1        0.0299
      3 C          70.6322   71.5355   18.1802 C.2     1  UNL1       -0.0018
      4 C          69.9727   72.1983   19.3532 C.3     1  UNL1        0.0327
      5 C          70.8376   72.2987   16.9053 C.ar    1  UNL1        0.0754
      6 N          70.3834   73.7247   16.8033 N.ar    1  UNL1       -0.2257
      7 C          70.5888   74.4879   15.5284 C.ar    1  UNL1        0.1846
      8 N          70.2484   75.8947   15.1349 N.2     1  UNL1       -0.1288
      9 N          70.6976   76.1014   13.7187 N.2     1  UNL1       -0.1508
     10 C          71.3155   74.8223   13.2370 C.2     1  UNL1        0.0837
     11 C          71.8984   74.5825   11.8758 C.3     1  UNL1        0.0541
     12 C          71.2483   73.8251   14.3555 C.ar    1  UNL1        0.0511
     13 C          71.7024   72.3991   14.4575 C.ar    1  UNL1        0.0077
     14 C          71.4970   71.6360   15.7324 C.ar    1  UNL1        0.0014
     15 C          71.9512   70.2099   15.8343 C.3     1  UNL1        0.0914
     16 C          72.3619   71.7363   13.2846 C.3     1  UNL1        0.1257
     17 C          73.6323   72.4771   13.5802 C.3     1  UNL1        0.0385
     18 O          73.0215   71.0735   12.1116 O.3     1  UNL1       -0.3786
     19 H          73.9382   71.3823   12.0391 H       1  UNL1        0.2111
     20 C          71.0915   70.9955   12.9889 C.ar    1  UNL1        0.0086
     21 C          69.9694   71.6869   12.2729 C.ar    1  UNL1        0.0190
     22 C          68.6990   70.9461   11.9772 C.ar    1  UNL1        0.0986
     23 N          68.5509   69.5138   12.3977 N.ar    1  UNL1       -0.2423
     24 C          69.6731   68.8224   13.1137 C.ar    1  UNL1        0.0986
     25 C          70.9434   69.5633   13.4093 C.ar    1  UNL1        0.0190
     26 C          73.6174   67.6595   16.8792 C.3     1  UNL1        0.2520
     27 O          72.1999   68.0208   17.2112 O.2     1  UNL1       -0.4754
@<TRIPOS>BOND
     1    26    27    1
     2    27     1    1
     3     1     2    2
     4     2     3    1
     5     3     4    1
     6     3     5    2
     7     5     6   ar
     8     6     7   ar
     9     7     8    1
    10     8     9    2
    11     9    10    1
    12    10    11    1
    13    10    12    2
    14    12    13   ar
    15    13    16    1
    16    16    17    1
    17    16    18    1
    18    16    20    1
    19    20    21   ar
    20    21    22   ar
    21    22    23   ar
    22    23    24   ar
    23    24    25   ar
    24    13    14   ar
    25    14    15    1
    26    15     1    1
    27    14     5   ar
    28    12     7   ar
    29    25    20   ar
    30    18    19    1
@<TRIPOS>MOLECULE
*****
 27 30 0 0 0
SMALL
GASTEIGER

@<TRIPOS>ATOM
      1 C          63.5291   89.0676   12.8641 C.2     1  UNL1        0.1203
      2 C          62.6955   89.1045   11.6176 C.2     1  UNL1        0.0299
      3 C          62.2497   87.8244   10.9754 C.2     1  UNL1       -0.0018
      4 C          61.4161   87.8612    9.7288 C.3     1  UNL1        0.0327
      5 C          62.6375   86.5073   11.5797 C.ar    1  UNL1        0.0754
      6 N          62.1916   85.2271   10.9374 N.ar    1  UNL1       -0.2257
      7 C          62.5794   83.9101   11.5417 C.ar    1  UNL1        0.1846
      8 N          62.2899   82.4955   11.1356 N.2     1  UNL1       -0.1288
      9 N          62.9446   81.5843   12.1312 N.2     1  UNL1       -0.1508
     10 C          63.6387   82.4359   13.1525 C.2     1  UNL1        0.0837
     11 C          64.4211   81.9374   14.3312 C.3     1  UNL1        0.0541
     12 C          63.4130   83.8733   12.7882 C.ar    1  UNL1        0.0511
     13 C          63.8588   85.1535   13.4304 C.ar    1  UNL1        0.0077
     14 C          63.4710   86.4704   12.8261 C.ar    1  UNL1        0.0014
     15 C          63.9168   87.7506   13.4684 C.3     1  UNL1        0.0914
     16 C          64.6924   85.1166   14.6769 C.3     1  UNL1        0.1257
     17 C          65.8912   84.7274   13.8637 C.3     1  UNL1        0.0385
     18 O          65.5260   85.0798   15.9234 O.3     1  UNL1       -0.3786
     19 H          66.4366   84.8345   15.6963 H       1  UNL1        0.2111
     20 C          63.4935   85.5059   15.4901 C.ar    1  UNL1        0.0086
     21 C          63.6266   86.5269   16.5809 C.ar    1  UNL1        0.0190
     22 C          62.4277   86.9162   17.3941 C.ar    1  UNL1        0.0986
     23 N          61.0958   86.2844   17.1164 N.ar    1  UNL1       -0.2423
     24 C          60.9628   85.2635   16.0256 C.ar    1  UNL1        0.0986
     25 C          62.1617   84.8742   15.2124 C.ar    1  UNL1        0.0190
     26 C          63.9659   90.4801   15.0006 C.3     1  UNL1        0.2520
     27 O          63.9749   90.3477   13.5064 O.2     1  UNL1       -0.4754
@<TRIPOS>BOND
     1    26    27    1
     2    27     1    1
     3     1     2    2
     4     2     3    1
     5     3     4    1
     6     3     5    2
     7     5     6   ar
     8     6     7   ar
     9     7     8    1
    10     8     9    2
    11     9    10    1
    12    10    11    1
    13    10    12    2
    14    12    13   ar
    15    13    16    1
    16    16    17    1
    17    16    18    1
    18    16    20    1
    19    20    21   ar
    20    21    22   ar
    21    22    23   ar
    22    23    24   ar
    23    24    25   ar
    24    13    14   ar
    25    14    15    1
    26    15     1    1
    27    14     5   ar
    28    12     7   ar
    29    25    20   ar
    30    18    19    1
@<TRIPOS>MOLECULE
*****
 27 30 0 0 0
SMALL
GASTEIGER

@<TRIPOS>ATOM
      1 C          62.5433   84.1763   12.3574 C.2     1  UNL1        0.1203
      2 C          63.3110   84.1413   13.6457 C.2     1  UNL1        0.0299
      3 C          63.8667   85.4096   14.2222 C.2     1  UNL1       -0.0018
      4 C          64.6344   85.3747   15.5104 C.3     1  UNL1        0.0327
      5 C          63.6548   86.7130   13.5104 C.ar    1  UNL1        0.0754
      6 N          64.2107   87.9814   14.0870 N.ar    1  UNL1       -0.2257
      7 C          63.9988   89.2847   13.3753 C.ar    1  UNL1        0.1846
      8 N          64.4248   90.6859   13.6992 N.2     1  UNL1       -0.1288
      9 N          63.9205   91.5869   12.6111 N.2     1  UNL1       -0.1508
     10 C          63.1828   90.7424   11.6147 C.2     1  UNL1        0.0837
     11 C          62.5141   91.2345   10.3655 C.3     1  UNL1        0.0541
     12 C          63.2311   89.3196   12.0871 C.ar    1  UNL1        0.0511
     13 C          62.6754   88.0512   11.5106 C.ar    1  UNL1        0.0077
     14 C          62.8872   86.7479   12.2223 C.ar    1  UNL1        0.0014
     15 C          62.3314   85.4795   11.6457 C.3     1  UNL1        0.0914
     16 C          61.9077   88.0861   10.2223 C.3     1  UNL1        0.1257
     17 C          63.0583   87.4293    9.5189 C.3     1  UNL1        0.0385
     18 O          61.1401   88.1210    8.9340 O.3     1  UNL1       -0.3786
     19 H          61.6762   87.7280    8.2275 H       1  UNL1        0.2111
     20 C          60.7571   88.7429   10.9258 C.ar    1  UNL1        0.0086
     21 C          60.0961   88.0569   12.0843 C.ar    1  UNL1        0.0190
     22 C          58.9455   88.7137   12.7878 C.ar    1  UNL1        0.0986
     23 N          58.4560   90.0565   12.3325 N.ar    1  UNL1       -0.2423
     24 C          59.1171   90.7426   11.1739 C.ar    1  UNL1        0.0986
     25 C          60.2677   90.0857   10.4705 C.ar    1  UNL1        0.0190
     26 C          62.7363   81.6184   11.9446 C.3     1  UNL1        0.2520
     27 O          61.9876   82.9079   11.7810 O.2     1  UNL1       -0.4754
@<TRIPOS>BOND
     1    26    27    1
     2    27     1    1
     3     1     2    2
     4     2     3    1
     5     3     4    1
     6     3     5    2
     7     5     6   ar
     8     6     7   ar
     9     7     8    1
    10     8     9    2
    11     9    10    1
    12    10    11    1
    13    10    12    2
    14    12    13   ar
    15    13    16    1
    16    16    17    1
    17    16    18    1
    18    16    20    1
    19    20    21   ar
    20    21    22   ar
    21    22    23   ar
    22    23    24   ar
    23    24    25   ar
    24    13    14   ar
    25    14    15    1
    26    15     1    1
    27    14     5   ar
    28    12     7   ar
    29    25    20   ar
    30    18    19    1
@<TRIPOS>MOLECULE
*****
 27 30 0 0 0
SMALL
GASTEIGER

@<TRIPOS>ATOM
      1 C          61.2586   86.2067    9.0045 C.2     1  UNL1        0.1203
      2 C          61.6151   84.9213    9.6906 C.2     1  UNL1        0.0299
      3 C          62.3424   84.9479   11.0022 C.2     1  UNL1       -0.0018
      4 C          62.6989   83.6626   11.6883 C.3     1  UNL1        0.0327
      5 C          62.7130   86.2600   11.6278 C.ar    1  UNL1        0.0754
      6 N          63.4403   86.2866   12.9395 N.ar    1  UNL1       -0.2257
      7 C          63.8110   87.5986   13.5650 C.ar    1  UNL1        0.1846
      8 N          64.5240   87.9364   14.8407 N.2     1  UNL1       -0.1288
      9 N          64.6081   89.4305   14.9430 N.2     1  UNL1       -0.1508
     10 C          63.9471   90.0161   13.7305 C.2     1  UNL1        0.0837
     11 C          63.8039   91.4774   13.4237 C.3     1  UNL1        0.0541
     12 C          63.4544   88.8839   12.8789 C.ar    1  UNL1        0.0511
     13 C          62.7272   88.8573   11.5672 C.ar    1  UNL1        0.0077
     14 C          62.3565   87.5453   10.9417 C.ar    1  UNL1        0.0014
     15 C          61.6292   87.5187    9.6300 C.3     1  UNL1        0.0914
     16 C          62.3706   90.1426   10.8811 C.3     1  UNL1        0.1257
     17 C          63.7558   90.2227   10.3113 C.3     1  UNL1        0.0385
     18 O          62.0141   91.4280   10.1949 O.3     1  UNL1       -0.3786
     19 H          62.7818   91.7538    9.6996 H       1  UNL1        0.2111
     20 C          60.9854   90.0625   11.4509 C.ar    1  UNL1        0.0086
     21 C          59.9173   90.9941   10.9597 C.ar    1  UNL1        0.0190
     22 C          58.5320   90.9140   11.5295 C.ar    1  UNL1        0.0986
     23 N          58.2150   89.9022   12.5906 N.ar    1  UNL1       -0.2423
     24 C          59.2831   88.9706   13.0819 C.ar    1  UNL1        0.0986
     25 C          60.6683   89.0508   12.5120 C.ar    1  UNL1        0.0190
     26 C          59.1673   86.7939    7.5789 C.3     1  UNL1        0.2520
     27 O          60.5313   86.1801    7.6929 O.2     1  UNL1       -0.4754
@<TRIPOS>BOND
     1    26    27    1
     2    27     1    1
     3     1     2    2
     4     2     3    1
     5     3     4    1
     6     3     5    2
     7     5     6   ar
     8     6     7   ar
     9     7     8    1
    10     8     9    2
    11     9    10    1
    12    10    11    1
    13    10    12    2
    14    12    13   ar
    15    13    16    1
    16    16    17    1
    17    16    18    1
    18    16    20    1
    19    20    21   ar
    20    21    22   ar
    21    22    23   ar
    22    23    24   ar
    23    24    25   ar
    24    13    14   ar
    25    14    15    1
    26    15     1    1
    27    14     5   ar
    28    12     7   ar
    29    25    20   ar
    30    18    19    1
@<TRIPOS>MOLECULE
*****
 27 30 0 0 0
SMALL
GASTEIGER

@<TRIPOS>ATOM
      1 C          45.4892   80.3137   16.8088 C.2     1  UNL1        0.1203
      2 C          45.0341   81.3249   17.8190 C.2     1  UNL1        0.0299
      3 C          44.5594   80.8752   19.1689 C.2     1  UNL1       -0.0018
      4 C          44.1043   81.8863   20.1791 C.3     1  UNL1        0.0327
      5 C          44.5397   79.4142   19.5087 C.ar    1  UNL1        0.0754
      6 N          44.0649   78.9645   20.8587 N.ar    1  UNL1       -0.2257
      7 C          44.0452   77.5036   21.1984 C.ar    1  UNL1        0.1846
      8 N          43.6330   76.7670   22.4384 N.2     1  UNL1       -0.1288
      9 N          43.8334   75.3006   22.1945 N.2     1  UNL1       -0.1508
     10 C          44.3694   75.1309   20.8038 C.2     1  UNL1        0.0837
     11 C          44.7139   73.8284   20.1445 C.3     1  UNL1        0.0541
     12 C          44.5002   76.4925   20.1882 C.ar    1  UNL1        0.0511
     13 C          44.9750   76.9422   18.8383 C.ar    1  UNL1        0.0077
     14 C          44.9947   78.4031   18.4985 C.ar    1  UNL1        0.0014
     15 C          45.4695   78.8528   17.1485 C.3     1  UNL1        0.0914
     16 C          45.4301   75.9311   17.8280 C.3     1  UNL1        0.1257
     17 C          44.1203   76.0604   17.1085 C.3     1  UNL1        0.0385
     18 O          45.8851   74.9199   16.8178 O.3     1  UNL1       -0.3786
     19 H          45.1846   74.7809   16.1614 H       1  UNL1        0.2111
     20 C          46.7399   75.8018   18.5475 C.ar    1  UNL1        0.0086
     21 C          47.3506   74.4477   18.7560 C.ar    1  UNL1        0.0190
     22 C          48.6604   74.3183   19.4755 C.ar    1  UNL1        0.0986
     23 N          49.3595   75.5432   19.9865 N.ar    1  UNL1       -0.2423
     24 C          48.7488   76.8973   19.7780 C.ar    1  UNL1        0.0986
     25 C          47.4390   77.0266   19.0585 C.ar    1  UNL1        0.0190
     26 C          45.5057   82.0790   14.9026 C.3     1  UNL1        0.2520
     27 O          45.9640   80.7634   15.4589 O.2     1  UNL1       -0.4754
@<TRIPOS>BOND
     1    26    27    1
     2    27     1    1
     3     1     2    2
     4     2     3    1
     5     3     4    1
     6     3     5    2
     7     5     6   ar
     8     6     7   ar
     9     7     8    1
    10     8     9    2
    11     9    10    1
    12    10    11    1
    13    10    12    2
    14    12    13   ar
    15    13    16    1
    16    16    17    1
    17    16    18    1
    18    16    20    1
    19    20    21   ar
    20    21    22   ar
    21    22    23   ar
    22    23    24   ar
    23    24    25   ar
    24    13    14   ar
    25    14    15    1
    26    15     1    1
    27    14     5   ar
    28    12     7   ar
    29    25    20   ar
    30    18    19    1
@<TRIPOS>MOLECULE
*****
 27 30 0 0 0
SMALL
GASTEIGER

@<TRIPOS>ATOM
      1 C          70.4379   72.7155   16.6240 C.2     1  UNL1        0.1203
      2 C          70.4326   74.2031   16.4311 C.2     1  UNL1        0.0299
      3 C          70.9834   74.7977   15.1689 C.2     1  UNL1       -0.0018
      4 C          70.9781   76.2852   14.9760 C.3     1  UNL1        0.0327
      5 C          71.5396   73.9046   14.0996 C.ar    1  UNL1        0.0754
      6 N          72.0904   74.4993   12.8374 N.ar    1  UNL1       -0.2257
      7 C          72.6465   73.6063   11.7682 C.ar    1  UNL1        0.1846
      8 N          73.2527   73.9021   10.4284 N.2     1  UNL1       -0.1288
      9 N          73.6327   72.5974    9.7933 N.2     1  UNL1       -0.1508
     10 C          73.2613   71.4952   10.7406 C.2     1  UNL1        0.0837
     11 C          73.4639   70.0272   10.5081 C.3     1  UNL1        0.0541
     12 C          72.6518   72.1187   11.9611 C.ar    1  UNL1        0.0511
     13 C          72.1010   71.5242   13.2233 C.ar    1  UNL1        0.0077
     14 C          71.5449   72.4172   14.2925 C.ar    1  UNL1        0.0014
     15 C          70.9940   71.8226   15.5547 C.3     1  UNL1        0.0914
     16 C          72.1063   70.0366   13.4163 C.3     1  UNL1        0.1257
     17 C          73.4886   70.1164   13.9931 C.3     1  UNL1        0.0385
     18 O          72.1117   68.5491   13.6092 O.3     1  UNL1       -0.3786
     19 H          72.9556   68.2771   14.0025 H       1  UNL1        0.2111
     20 C          70.7239   69.9569   12.8394 C.ar    1  UNL1        0.0086
     21 C          70.2547   71.0004   11.8694 C.ar    1  UNL1        0.0190
     22 C          68.8723   70.9206   11.2925 C.ar    1  UNL1        0.0986
     23 N          67.9592   69.7973   11.6859 N.ar    1  UNL1       -0.2423
     24 C          68.4285   68.7539   12.6559 C.ar    1  UNL1        0.0986
     25 C          69.8109   68.8337   13.2327 C.ar    1  UNL1        0.0190
     26 C          70.8145   71.7335   18.9997 C.3     1  UNL1        0.2520
     27 O          69.8871   72.1210   17.8861 O.2     1  UNL1       -0.4754
@<TRIPOS>BOND
     1    26    27    1
     2    27     1    1
     3     1     2    2
     4     2     3    1
     5     3     4    1
     6     3     5    2
     7     5     6   ar
     8     6     7   ar
     9     7     8    1
    10     8     9    2
    11     9    10    1
    12    10    11    1
    13    10    12    2
    14    12    13   ar
    15    13    16    1
    16    16    17    1
    17    16    18    1
    18    16    20    1
    19    20    21   ar
    20    21    22   ar
    21    22    23   ar
    22    23    24   ar
    23    24    25   ar
    24    13    14   ar
    25    14    15    1
    26    15     1    1
    27    14     5   ar
    28    12     7   ar
    29    25    20   ar
    30    18    19    1
@<TRIPOS>MOLECULE
*****
 27 30 0 0 0
SMALL
GASTEIGER

@<TRIPOS>ATOM
      1 C          64.1491   90.1835   14.3538 C.2     1  UNL1        0.1203
      2 C          64.5690   88.9802   15.1449 C.2     1  UNL1        0.0299
      3 C          64.2738   87.6031   14.6288 C.2     1  UNL1       -0.0018
      4 C          64.6938   86.3997   15.4198 C.3     1  UNL1        0.0327
      5 C          63.5587   87.4293   13.3217 C.ar    1  UNL1        0.0754
      6 N          63.2635   86.0520   12.8057 N.ar    1  UNL1       -0.2257
      7 C          62.5484   85.8782   11.4986 C.ar    1  UNL1        0.1846
      8 N          62.1234   84.6547   10.7420 N.2     1  UNL1       -0.1288
      9 N          61.4408   85.1019    9.4834 N.2     1  UNL1       -0.1508
     10 C          61.4440   86.6018    9.4621 C.2     1  UNL1        0.0837
     11 C          60.8643   87.4695    8.3846 C.3     1  UNL1        0.0541
     12 C          62.1285   87.0816   10.7076 C.ar    1  UNL1        0.0511
     13 C          62.4237   88.4587   11.2237 C.ar    1  UNL1        0.0077
     14 C          63.1388   88.6325   12.5307 C.ar    1  UNL1        0.0014
     15 C          63.4340   90.0097   13.0468 C.3     1  UNL1        0.0914
     16 C          62.0038   89.6621   10.4327 C.3     1  UNL1        0.1257
     17 C          63.3221   89.6518    9.7172 C.3     1  UNL1        0.0385
     18 O          61.5839   90.8654    9.6416 O.3     1  UNL1       -0.3786
     19 H          62.2972   91.1185    9.0349 H       1  UNL1        0.2111
     20 C          60.6855   89.6724   11.1482 C.ar    1  UNL1        0.0086
     21 C          59.8426   90.9131   11.1497 C.ar    1  UNL1        0.0190
     22 C          58.5243   90.9234   11.8652 C.ar    1  UNL1        0.0986
     23 N          58.0489   89.6928   12.5792 N.ar    1  UNL1       -0.2423
     24 C          58.8918   88.4521   12.5777 C.ar    1  UNL1        0.0986
     25 C          60.2101   88.4418   11.8622 C.ar    1  UNL1        0.0190
     26 C          65.8622   92.0441   14.9489 C.3     1  UNL1        0.2520
     27 O          64.4443   91.5607   14.8699 O.2     1  UNL1       -0.4754
@<TRIPOS>BOND
     1    26    27    1
     2    27     1    1
     3     1     2    2
     4     2     3    1
     5     3     4    1
     6     3     5    2
     7     5     6   ar
     8     6     7   ar
     9     7     8    1
    10     8     9    2
    11     9    10    1
    12    10    11    1
    13    10    12    2
    14    12    13   ar
    15    13    16    1
    16    16    17    1
    17    16    18    1
    18    16    20    1
    19    20    21   ar
    20    21    22   ar
    21    22    23   ar
    22    23    24   ar
    23    24    25   ar
    24    13    14   ar
    25    14    15    1
    26    15     1    1
    27    14     5   ar
    28    12     7   ar
    29    25    20   ar
    30    18    19    1
@<TRIPOS>MOLECULE
*****
 27 30 0 0 0
SMALL
GASTEIGER

@<TRIPOS>ATOM
      1 C          45.5410   79.8252   18.8652 C.2     1  UNL1        0.1203
      2 C          44.9279   80.3226   20.1407 C.2     1  UNL1        0.0299
      3 C          44.4045   79.3461   21.1519 C.2     1  UNL1       -0.0018
      4 C          43.7914   79.8434   22.4273 C.3     1  UNL1        0.0327
      5 C          44.4943   77.8722   20.8876 C.ar    1  UNL1        0.0754
      6 N          43.9709   76.8957   21.8989 N.ar    1  UNL1       -0.2257
      7 C          44.0606   75.4219   21.6346 C.ar    1  UNL1        0.1846
      8 N          43.6331   74.2302   22.4390 N.2     1  UNL1       -0.1288
      9 N          43.9820   72.9963   21.6606 N.2     1  UNL1       -0.1508
     10 C          44.6251   73.4255   20.3752 C.2     1  UNL1        0.0837
     11 C          45.1309   72.5153   19.2955 C.3     1  UNL1        0.0541
     12 C          44.6738   74.9246   20.3592 C.ar    1  UNL1        0.0511
     13 C          45.1971   75.9011   19.3480 C.ar    1  UNL1        0.0077
     14 C          45.1073   77.3749   19.6122 C.ar    1  UNL1        0.0014
     15 C          45.6307   78.3514   18.6009 C.3     1  UNL1        0.0914
     16 C          45.8102   75.4038   18.0725 C.3     1  UNL1        0.1257
     17 C          44.4703   75.4723   17.4017 C.3     1  UNL1        0.0385
     18 O          46.4233   74.9065   16.7970 O.3     1  UNL1       -0.3786
     19 H          45.7384   74.8411   16.1131 H       1  UNL1        0.2111
     20 C          47.1501   75.3354   18.7433 C.ar    1  UNL1        0.0086
     21 C          47.8556   76.5983   19.1400 C.ar    1  UNL1        0.0190
     22 C          49.1956   76.5298   19.8108 C.ar    1  UNL1        0.0986
     23 N          49.8299   75.1984   20.0848 N.ar    1  UNL1       -0.2423
     24 C          49.1244   73.9355   19.6881 C.ar    1  UNL1        0.0986
     25 C          47.7845   74.0041   19.0173 C.ar    1  UNL1        0.0190
     26 C          45.1094   81.5684   16.9876 C.3     1  UNL1        0.2520
     27 O          46.0643   80.8017   17.8540 O.2     1  UNL1       -0.4754
@<TRIPOS>BOND
     1    26    27    1
     2    27     1    1
     3     1     2    2
     4     2     3    1
     5     3     4    1
     6     3     5    2
     7     5     6   ar
     8     6     7   ar
     9     7     8    1
    10     8     9    2
    11     9    10    1
    12    10    11    1
    13    10    12    2
    14    12    13   ar
    15    13    16    1
    16    16    17    1
    17    16    18    1
    18    16    20    1
    19    20    21   ar
    20    21    22   ar
    21    22    23   ar
    22    23    24   ar
    23    24    25   ar
    24    13    14   ar
    25    14    15    1
    26    15     1    1
    27    14     5   ar
    28    12     7   ar
    29    25    20   ar
    30    18    19    1
@<TRIPOS>MOLECULE
*****
 27 30 0 0 0
SMALL
GASTEIGER

@<TRIPOS>ATOM
      1 C          63.8904   87.3346   13.6057 C.2     1  UNL1        0.1203
      2 C          63.8380   85.8361   13.5616 C.2     1  UNL1        0.0299
      3 C          63.0874   85.1439   12.4628 C.2     1  UNL1       -0.0018
      4 C          63.0350   83.6455   12.4187 C.3     1  UNL1        0.0327
      5 C          62.3893   85.9502   11.4079 C.ar    1  UNL1        0.0754
      6 N          61.6387   85.2579   10.3090 N.ar    1  UNL1       -0.2257
      7 C          60.9406   86.0642    9.2542 C.ar    1  UNL1        0.1846
      8 N          60.1290   85.6637    8.0581 N.2     1  UNL1       -0.1288
      9 N          59.6798   86.9147    7.3629 N.2     1  UNL1       -0.1508
     10 C          60.2138   88.0883    8.1294 C.2     1  UNL1        0.0837
     11 C          60.0052   89.5337    7.7870 C.3     1  UNL1        0.0541
     12 C          60.9930   87.5626    9.2983 C.ar    1  UNL1        0.0511
     13 C          61.7436   88.2548   10.3972 C.ar    1  UNL1        0.0077
     14 C          62.4417   87.4486   11.4520 C.ar    1  UNL1        0.0014
     15 C          63.1923   88.1409   12.5509 C.3     1  UNL1        0.0914
     16 C          61.7960   89.7533   10.4413 C.3     1  UNL1        0.1257
     17 C          63.1185   89.7278    9.7338 C.3     1  UNL1        0.0385
     18 O          61.8485   91.2517   10.4853 O.3     1  UNL1       -0.3786
     19 H          62.6661   91.5592   10.0635 H       1  UNL1        0.2111
     20 C          60.4736   89.7787   11.1488 C.ar    1  UNL1        0.0086
     21 C          59.9781   88.5527   11.8569 C.ar    1  UNL1        0.0190
     22 C          58.6557   88.5782   12.5644 C.ar    1  UNL1        0.0986
     23 N          57.8287   89.8298   12.5636 N.ar    1  UNL1       -0.2423
     24 C          58.3242   91.0557   11.8555 C.ar    1  UNL1        0.0986
     25 C          59.6467   91.0302   11.1481 C.ar    1  UNL1        0.0190
     26 C          64.6911   89.5254   14.7501 C.3     1  UNL1        0.2520
     27 O          64.6409   88.0268   14.7045 O.2     1  UNL1       -0.4754
@<TRIPOS>BOND
     1    26    27    1
     2    27     1    1
     3     1     2    2
     4     2     3    1
     5     3     4    1
     6     3     5    2
     7     5     6   ar
     8     6     7   ar
     9     7     8    1
    10     8     9    2
    11     9    10    1
    12    10    11    1
    13    10    12    2
    14    12    13   ar
    15    13    16    1
    16    16    17    1
    17    16    18    1
    18    16    20    1
    19    20    21   ar
    20    21    22   ar
    21    22    23   ar
    22    23    24   ar
    23    24    25   ar
    24    13    14   ar
    25    14    15    1
    26    15     1    1
    27    14     5   ar
    28    12     7   ar
    29    25    20   ar
    30    18    19    1
