@<TRIPOS>MOLECULE
*****
 46 52 0 0 0
SMALL
GASTEIGER

@<TRIPOS>ATOM
      1 C          59.2676   91.3340    4.8599 C.ar    1  UNL1        0.0907
      2 C          60.2969   90.5866    5.6549 C.ar    1  UNL1        0.1496
      3 O          61.6281   90.7854    4.9930 O.2     1  UNL1       -0.4533
      4 C          61.4217   91.6558    3.7889 C.ar    1  UNL1        0.1467
      5 C          62.3736   92.1835    2.7567 C.ar    1  UNL1        0.0536
      6 C          61.8667   93.0502    1.6423 C.ar    1  UNL1        0.0730
      7 C          60.4078   93.3892    1.5601 C.ar    1  UNL1        0.0327
      8 C          59.4559   92.8615    2.5923 C.ar    1  UNL1        0.0061
      9 C          59.9628   91.9949    3.7066 C.ar    1  UNL1        0.0420
     10 C          59.9008   94.2559    0.4456 C.ar    1  UNL1        0.0826
     11 C          60.1876   95.7282    0.4508 C.ar    1  UNL1        0.0205
     12 C          59.6807   96.5949   -0.6636 C.ar    1  UNL1        0.0175
     13 C          58.8870   95.9892   -1.7831 C.ar    1  UNL1        0.0653
     14 C          58.6003   94.5169   -1.7882 C.ar    1  UNL1        0.1101
     15 N          59.1072   93.6502   -0.6738 N.ar    1  UNL1       -0.2426
     16 C          57.8066   93.9113   -2.9077 C.ar    1  UNL1        0.0803
     17 C          57.3700   92.5025   -3.1808 C.ar    1  UNL1        0.0225
     18 C          56.5933   92.4985   -4.4641 C.ar    1  UNL1        0.0448
     19 C          55.9199   91.3959   -5.2263 C.ar    1  UNL1        0.1415
     20 F          55.9634   89.9895   -4.7064 F       1  UNL1       -0.2041
     21 C          55.2031   91.6998   -6.5085 C.ar    1  UNL1        0.0297
     22 C          55.1596   93.1061   -7.0284 C.ar    1  UNL1        0.0038
     23 C          55.8329   94.2086   -6.2661 C.ar    1  UNL1        0.0174
     24 C          56.5498   93.9048   -4.9840 C.ar    1  UNL1        0.0634
     25 N          57.2997   94.7780   -4.0221 N.ar    1  UNL1       -0.3085
     26 C          57.5864   96.2503   -4.0170 C.3     1  UNL1        0.2004
     27 N          58.3800   96.8559   -2.8975 N.pl3   1  UNL1       -0.3126
     28 H          58.5682   97.8223   -2.8942 H       1  UNL1        0.1486
     29 C          60.0399   89.7815    6.8943 C.ar    1  UNL1        0.0349
     30 C          60.4365   90.3228    8.2358 C.ar    1  UNL1        0.0053
     31 C          60.1796   89.5178    9.4752 C.ar    1  UNL1        0.0297
     32 C          59.5260   88.1716    9.3730 C.ar    1  UNL1        0.1401
     33 F          59.2690   87.3666   10.6123 F       1  UNL1       -0.2042
     34 C          59.1294   87.6304    8.0314 C.ar    1  UNL1        0.0297
     35 C          59.3863   88.4353    6.7921 C.ar    1  UNL1        0.0053
     36 C          55.5776   90.2349    5.8220 C.3     1  UNL1        0.1109
     37 N          57.0444   90.1612    5.5172 N.am    1  UNL1       -0.2991
     38 C          57.8008   91.4077    5.1647 C.2     1  UNL1        0.2490
     39 O          57.0901   92.7278    5.1168 O.2     1  UNL1       -0.2700
     40 H          57.5108   89.2948    5.5486 H       1  UNL1        0.1498
     41 N          62.8186   93.5778    0.6101 N.pl3   1  UNL1       -0.1924
     42 C          62.5651   93.3197   -0.8456 C.3     1  UNL1        0.1388
     43 S          64.0241   94.3636    1.0337 S.O2    1  UNL1        0.0588
     44 C          65.2296   95.1493    1.4572 C.3     1  UNL1        0.1999
     45 O          63.1326   95.4582    1.5406 O.2     1  UNL1       -0.1542
     46 O          64.9156   93.2690    0.5268 O.2     1  UNL1       -0.1542
@<TRIPOS>BOND
     1    36    37    1
     2    37    38   am
     3    38    39    2
     4    38     1    1
     5     1     2   ar
     6     2    29    1
     7    29    30   ar
     8    30    31   ar
     9    31    32   ar
    10    32    33    1
    11    32    34   ar
    12    34    35   ar
    13     2     3   ar
    14     3     4   ar
    15     4     5   ar
    16     5     6   ar
    17     6    41    1
    18    41    42    1
    19    41    43    1
    20    43    44    1
    21    43    45    2
    22    43    46    2
    23     6     7   ar
    24     7    10    1
    25    10    11   ar
    26    11    12   ar
    27    12    13   ar
    28    13    14   ar
    29    14    15   ar
    30    14    16    1
    31    16    17   ar
    32    17    18   ar
    33    18    19   ar
    34    19    20    1
    35    19    21   ar
    36    21    22   ar
    37    22    23   ar
    38    23    24   ar
    39    24    25   ar
    40    25    26    1
    41    26    27    1
    42     7     8   ar
    43     8     9   ar
    44     9     1   ar
    45    35    29   ar
    46     9     4   ar
    47    15    10   ar
    48    25    16   ar
    49    27    13    1
    50    24    18   ar
    51    37    40    1
    52    27    28    1
@<TRIPOS>MOLECULE
*****
 46 52 0 0 0
SMALL
GASTEIGER

@<TRIPOS>ATOM
      1 C          59.4826   91.3508    4.9257 C.ar    1  UNL1        0.0907
      2 C          60.4877   90.6217    5.7672 C.ar    1  UNL1        0.1496
      3 O          61.8375   90.8032    5.1385 O.2     1  UNL1       -0.4533
      4 C          61.6665   91.6444    3.9084 C.ar    1  UNL1        0.1467
      5 C          62.6481   92.1459    2.8911 C.ar    1  UNL1        0.0536
      6 C          62.1742   92.9859    1.7422 C.ar    1  UNL1        0.0730
      7 C          60.7188   93.3243    1.6106 C.ar    1  UNL1        0.0327
      8 C          59.7373   92.8228    2.6280 C.ar    1  UNL1        0.0061
      9 C          60.2111   91.9828    3.7768 C.ar    1  UNL1        0.0420
     10 C          60.2449   94.1643    0.4617 C.ar    1  UNL1        0.0826
     11 C          58.9138   94.8520    0.5343 C.ar    1  UNL1        0.0205
     12 C          58.4399   95.6919   -0.6145 C.ar    1  UNL1        0.0175
     13 C          59.2971   95.8443   -1.8359 C.ar    1  UNL1        0.0653
     14 C          60.6282   95.1566   -1.9085 C.ar    1  UNL1        0.1101
     15 N          61.1021   94.3167   -0.7597 N.ar    1  UNL1       -0.2426
     16 C          61.4855   95.3090   -3.1300 C.ar    1  UNL1        0.0803
     17 C          62.8335   94.7555   -3.4855 C.ar    1  UNL1        0.0225
     18 C          63.1927   95.2534   -4.8541 C.ar    1  UNL1        0.0448
     19 C          64.3997   95.0338   -5.7173 C.ar    1  UNL1        0.1415
     20 F          65.5258   94.1726   -5.2270 F       1  UNL1       -0.2041
     21 C          64.4807   95.6755   -7.0707 C.ar    1  UNL1        0.0297
     22 C          63.3547   96.5367   -7.5610 C.ar    1  UNL1        0.0038
     23 C          62.1477   96.7562   -6.6978 C.ar    1  UNL1        0.0174
     24 C          62.0667   96.1146   -5.3444 C.ar    1  UNL1        0.0634
     25 N          61.0116   96.1489   -4.2788 N.ar    1  UNL1       -0.3085
     26 C          59.6804   96.8366   -4.2062 C.3     1  UNL1        0.2004
     27 N          58.8232   96.6843   -2.9848 N.pl3   1  UNL1       -0.3126
     28 H          57.9496   97.1356   -2.9372 H       1  UNL1        0.1486
     29 C          60.1946   89.8472    7.0179 C.ar    1  UNL1        0.0349
     30 C          60.7710   90.2934    8.3289 C.ar    1  UNL1        0.0053
     31 C          60.4778   89.5189    9.5795 C.ar    1  UNL1        0.0297
     32 C          59.6083   88.2982    9.5192 C.ar    1  UNL1        0.1401
     33 F          59.3151   87.5236   10.7700 F       1  UNL1       -0.2042
     34 C          59.0319   87.8519    8.2083 C.ar    1  UNL1        0.0297
     35 C          59.3250   88.6264    6.9576 C.ar    1  UNL1        0.0053
     36 C          55.7604   90.2748    5.7844 C.3     1  UNL1        0.1109
     37 N          57.2351   90.1923    5.5230 N.am    1  UNL1       -0.2991
     38 C          58.0078   91.4333    5.1870 C.2     1  UNL1        0.2490
     39 O          57.3058   92.7567    5.1124 O.2     1  UNL1       -0.2700
     40 H          57.6959   89.3237    5.5720 H       1  UNL1        0.1498
     41 N          63.1557   93.4875    0.7248 N.pl3   1  UNL1       -0.1924
     42 C          63.3571   92.7356   -0.5574 C.3     1  UNL1        0.1388
     43 S          63.9359   94.7410    0.9897 S.O2    1  UNL1        0.0588
     44 C          64.7160   95.9945    1.2547 C.3     1  UNL1        0.1999
     45 O          64.6539   94.5702   -0.3161 O.2     1  UNL1       -0.1542
     46 O          63.2180   94.9118    2.2956 O.2     1  UNL1       -0.1542
@<TRIPOS>BOND
     1    36    37    1
     2    37    38   am
     3    38    39    2
     4    38     1    1
     5     1     2   ar
     6     2    29    1
     7    29    30   ar
     8    30    31   ar
     9    31    32   ar
    10    32    33    1
    11    32    34   ar
    12    34    35   ar
    13     2     3   ar
    14     3     4   ar
    15     4     5   ar
    16     5     6   ar
    17     6    41    1
    18    41    42    1
    19    41    43    1
    20    43    44    1
    21    43    45    2
    22    43    46    2
    23     6     7   ar
    24     7    10    1
    25    10    11   ar
    26    11    12   ar
    27    12    13   ar
    28    13    14   ar
    29    14    15   ar
    30    14    16    1
    31    16    17   ar
    32    17    18   ar
    33    18    19   ar
    34    19    20    1
    35    19    21   ar
    36    21    22   ar
    37    22    23   ar
    38    23    24   ar
    39    24    25   ar
    40    25    26    1
    41    26    27    1
    42     7     8   ar
    43     8     9   ar
    44     9     1   ar
    45    35    29   ar
    46     9     4   ar
    47    15    10   ar
    48    25    16   ar
    49    27    13    1
    50    24    18   ar
    51    37    40    1
    52    27    28    1
