@<TRIPOS>MOLECULE
*****
 32 34 0 0 0
SMALL
GASTEIGER

@<TRIPOS>ATOM
      1 C          60.3086   86.3533    8.0445 C.2     1  UNL1        0.2296
      2 O          60.4485   85.2235    7.0678 O.2     1  UNL1       -0.2745
      3 N          61.4484   86.7032    8.9548 N.am    1  UNL1       -0.2543
      4 C          61.3085   87.8331    9.9315 C.ar    1  UNL1        0.0551
      5 C          60.0745   87.9453   10.7768 C.ar    1  UNL1        0.0263
      6 C          59.9346   89.0750   11.7535 C.ar    1  UNL1        0.0590
      7 CL         58.7005   89.1873   12.5989 Cl      1  UNL1       -0.0822
      8 C          61.0288   90.0927   11.8849 C.ar    1  UNL1        0.0146
      9 C          62.2628   89.9805   11.0396 C.ar    1  UNL1        0.0392
     10 C          62.4026   88.8507   10.0629 C.ar    1  UNL1        0.0181
     11 C          63.3570   90.9981   11.1710 C.ar    1  UNL1        0.1806
     12 N          64.1503   91.2846   12.4113 N.ar    1  UNL1       -0.1083
     13 N          65.1336   92.3714   12.0920 N.ar    1  UNL1       -0.0229
     14 N          64.9479   92.7567   10.6543 N.ar    1  UNL1       -0.0464
     15 N          63.8499   91.9080   10.0851 N.ar    1  UNL1       -0.2388
     16 H          63.5120   91.9421    9.1610 H       1  UNL1        0.1923
     17 C          59.0290   87.1332    8.1110 C.3     1  UNL1        0.0856
     18 C          58.7319   88.1765    7.0751 C.3     1  UNL1        0.0096
     19 C          59.4279   90.3283    5.7963 C.3     1  UNL1        0.0000
     20 C          59.6339   89.3659    6.9283 C.3     1  UNL1        0.0005
     21 C          62.7280   85.9234    8.8883 C.3     1  UNL1        0.1247
     22 C          62.9801   84.8114    9.8630 C.ar    1  UNL1       -0.0018
     23 C          62.3525   84.8510   11.2247 C.ar    1  UNL1        0.0005
     24 C          62.6046   83.7390   12.1993 C.ar    1  UNL1        0.0369
     25 C          63.4845   82.5875   11.8121 C.ar    1  UNL1        0.1468
     26 C          64.1122   82.5479   10.4504 C.ar    1  UNL1        0.0369
     27 C          63.8600   83.6599    9.4758 C.ar    1  UNL1        0.0005
     28 O          63.7366   81.4755   12.7868 O.3     1  UNL1       -0.4045
     29 C          62.6041   80.6005   13.2358 C.3     1  UNL1        0.5753
     30 F          61.4714   79.7255   13.6848 F       1  UNL1       -0.1328
     31 F          62.7128   79.8085   11.9667 F       1  UNL1       -0.1328
     32 F          62.4954   81.3925   14.5050 F       1  UNL1       -0.1328
@<TRIPOS>BOND
     1    19    20    1
     2    20    18    1
     3    18    17    1
     4    17     1    1
     5     1     2    2
     6     1     3   am
     7     3    21    1
     8    21    22    1
     9    22    23   ar
    10    23    24   ar
    11    24    25   ar
    12    25    28    1
    13    28    29    1
    14    29    30    1
    15    29    31    1
    16    29    32    1
    17    25    26   ar
    18    26    27   ar
    19     3     4    1
    20     4     5   ar
    21     5     6   ar
    22     6     7    1
    23     6     8   ar
    24     8     9   ar
    25     9    11    1
    26    11    12   ar
    27    12    13   ar
    28    13    14   ar
    29    14    15   ar
    30     9    10   ar
    31    27    22   ar
    32    10     4   ar
    33    15    11   ar
    34    15    16    1
@<TRIPOS>MOLECULE
*****
 32 34 0 0 0
SMALL
GASTEIGER

@<TRIPOS>ATOM
      1 C          60.3028   89.1517    9.6794 C.2     1  UNL1        0.2296
      2 O          59.7243   90.5302    9.8021 O.2     1  UNL1       -0.2745
      3 N          61.2637   88.6467   10.7146 N.am    1  UNL1       -0.2543
      4 C          61.8421   87.2681   10.5919 C.ar    1  UNL1        0.0551
      5 C          62.1884   86.7176    9.2402 C.ar    1  UNL1        0.0263
      6 C          62.7668   85.3391    9.1176 C.ar    1  UNL1        0.0590
      7 CL         63.1132   84.7886    7.7658 Cl      1  UNL1       -0.0822
      8 C          62.9989   84.5110   10.3466 C.ar    1  UNL1        0.0146
      9 C          62.6526   85.0615   11.6982 C.ar    1  UNL1        0.0392
     10 C          62.0742   86.4400   11.8209 C.ar    1  UNL1        0.0181
     11 C          62.8847   84.2334   12.9272 C.ar    1  UNL1        0.1806
     12 N          62.3390   84.5146   14.2958 N.ar    1  UNL1       -0.1083
     13 N          62.8202   83.4337   15.2179 N.ar    1  UNL1       -0.0229
     14 N          63.6634   82.4845   14.4191 N.ar    1  UNL1       -0.0464
     15 N          63.7032   82.9788   13.0034 N.ar    1  UNL1       -0.2388
     16 H          64.1825   82.5542   12.2555 H       1  UNL1        0.1923
     17 C          59.9203   88.2781    8.5215 C.3     1  UNL1        0.0856
     18 C          59.0611   88.8257    7.4206 C.3     1  UNL1        0.0096
     19 C          58.7533   90.6432    5.5898 C.3     1  UNL1        0.0000
     20 C          59.6498   89.7566    6.4024 C.3     1  UNL1        0.0005
     21 C          61.6462   89.5202   11.8724 C.3     1  UNL1        0.1247
     22 C          62.8237   90.4426   11.7592 C.ar    1  UNL1       -0.0018
     23 C          63.1677   91.0607   10.4365 C.ar    1  UNL1        0.0005
     24 C          64.3452   91.9831   10.3234 C.ar    1  UNL1        0.0369
     25 C          65.1786   92.2873   11.5329 C.ar    1  UNL1        0.1468
     26 C          64.8346   91.6691   12.8555 C.ar    1  UNL1        0.0369
     27 C          63.6571   90.7468   12.9687 C.ar    1  UNL1        0.0005
     28 O          66.3561   93.2097   11.4197 O.3     1  UNL1       -0.4045
     29 C          67.0989   93.3218   10.1213 C.3     1  UNL1        0.5753
     30 F          67.8417   93.4340    8.8229 F       1  UNL1       -0.1328
     31 F          66.4631   94.6575    9.8730 F       1  UNL1       -0.1328
     32 F          67.7346   91.9861   10.3697 F       1  UNL1       -0.1328
@<TRIPOS>BOND
     1    19    20    1
     2    20    18    1
     3    18    17    1
     4    17     1    1
     5     1     2    2
     6     1     3   am
     7     3    21    1
     8    21    22    1
     9    22    23   ar
    10    23    24   ar
    11    24    25   ar
    12    25    28    1
    13    28    29    1
    14    29    30    1
    15    29    31    1
    16    29    32    1
    17    25    26   ar
    18    26    27   ar
    19     3     4    1
    20     4     5   ar
    21     5     6   ar
    22     6     7    1
    23     6     8   ar
    24     8     9   ar
    25     9    11    1
    26    11    12   ar
    27    12    13   ar
    28    13    14   ar
    29    14    15   ar
    30     9    10   ar
    31    27    22   ar
    32    10     4   ar
    33    15    11   ar
    34    15    16    1
@<TRIPOS>MOLECULE
*****
 32 34 0 0 0
SMALL
GASTEIGER

@<TRIPOS>ATOM
      1 C          60.3396   89.1669    9.6337 C.2     1  UNL1        0.2296
      2 O          59.7378   90.5348    9.7624 O.2     1  UNL1       -0.2745
      3 N          61.1958   88.6174   10.7360 N.am    1  UNL1       -0.2543
      4 C          61.7977   87.2494   10.6072 C.ar    1  UNL1        0.0551
      5 C          62.1604   86.7140    9.2538 C.ar    1  UNL1        0.0263
      6 C          62.7622   85.3461    9.1251 C.ar    1  UNL1        0.0590
      7 CL         63.1250   84.8106    7.7717 Cl      1  UNL1       -0.0822
      8 C          63.0012   84.5136   10.3498 C.ar    1  UNL1        0.0146
      9 C          62.6385   85.0490   11.7032 C.ar    1  UNL1        0.0392
     10 C          62.0367   86.4169   11.8319 C.ar    1  UNL1        0.0181
     11 C          62.8775   84.2165   12.9279 C.ar    1  UNL1        0.1806
     12 N          62.3493   84.4992   14.3030 N.ar    1  UNL1       -0.1083
     13 N          62.8321   83.4126   15.2175 N.ar    1  UNL1       -0.0229
     14 N          63.6586   82.4583   14.4075 N.ar    1  UNL1       -0.0464
     15 N          63.6867   82.9552   12.9924 N.ar    1  UNL1       -0.2388
     16 H          64.1542   82.5283   12.2384 H       1  UNL1        0.1923
     17 C          60.0852   88.3483    8.4027 C.3     1  UNL1        0.0856
     18 C          59.1182   88.8356    7.3647 C.3     1  UNL1        0.0096
     19 C          58.5789   90.6510    5.5861 C.3     1  UNL1        0.0000
     20 C          59.5766   89.7890    6.3014 C.3     1  UNL1        0.0005
     21 C          61.4503   89.4359   11.9670 C.3     1  UNL1        0.1247
     22 C          62.6904   90.2738   12.0674 C.ar    1  UNL1       -0.0018
     23 C          63.1907   91.0201   10.8663 C.ar    1  UNL1        0.0005
     24 C          64.4307   91.8579   10.9668 C.ar    1  UNL1        0.0369
     25 C          65.1705   91.9496   12.2685 C.ar    1  UNL1        0.1468
     26 C          64.6703   91.2033   13.4696 C.ar    1  UNL1        0.0369
     27 C          63.4302   90.3654   13.3691 C.ar    1  UNL1        0.0005
     28 O          66.4107   92.7875   12.3689 O.3     1  UNL1       -0.4045
     29 C          67.1878   92.8262   13.6513 C.3     1  UNL1        0.5753
     30 F          67.9651   92.8648   14.9337 F       1  UNL1       -0.1328
     31 F          67.9757   91.6286   13.2099 F       1  UNL1       -0.1328
     32 F          66.3999   94.0238   14.0927 F       1  UNL1       -0.1328
@<TRIPOS>BOND
     1    19    20    1
     2    20    18    1
     3    18    17    1
     4    17     1    1
     5     1     2    2
     6     1     3   am
     7     3    21    1
     8    21    22    1
     9    22    23   ar
    10    23    24   ar
    11    24    25   ar
    12    25    28    1
    13    28    29    1
    14    29    30    1
    15    29    31    1
    16    29    32    1
    17    25    26   ar
    18    26    27   ar
    19     3     4    1
    20     4     5   ar
    21     5     6   ar
    22     6     7    1
    23     6     8   ar
    24     8     9   ar
    25     9    11    1
    26    11    12   ar
    27    12    13   ar
    28    13    14   ar
    29    14    15   ar
    30     9    10   ar
    31    27    22   ar
    32    10     4   ar
    33    15    11   ar
    34    15    16    1
@<TRIPOS>MOLECULE
*****
 32 34 0 0 0
SMALL
GASTEIGER

@<TRIPOS>ATOM
      1 C          63.0348   90.4794   13.0856 C.2     1  UNL1        0.2296
      2 O          61.7266   89.7527   13.1883 O.2     1  UNL1       -0.2745
      3 N          63.9727   90.5046   14.2560 N.am    1  UNL1       -0.2543
      4 C          65.2809   91.2314   14.1533 C.ar    1  UNL1        0.0551
      5 C          66.1325   91.4189   15.3737 C.ar    1  UNL1        0.0263
      6 C          67.4406   92.1456   15.2709 C.ar    1  UNL1        0.0590
      7 CL         68.2923   92.3332   16.4914 Cl      1  UNL1       -0.0822
      8 C          67.8971   92.6849   13.9477 C.ar    1  UNL1        0.0146
      9 C          67.0455   92.4974   12.7273 C.ar    1  UNL1        0.0392
     10 C          65.7374   91.7706   12.8301 C.ar    1  UNL1        0.0181
     11 C          67.5020   93.0366   11.4041 C.ar    1  UNL1        0.1806
     12 N          68.4069   92.3388   10.4324 N.ar    1  UNL1       -0.1083
     13 N          68.5979   93.2392    9.2480 N.ar    1  UNL1       -0.0229
     14 N          67.8110   94.4935    9.4877 N.ar    1  UNL1       -0.0464
     15 N          67.1337   94.3683   10.8202 N.ar    1  UNL1       -0.2388
     16 H          66.5499   95.0419   11.2382 H       1  UNL1        0.1923
     17 C          63.4051   91.1810   11.8125 C.3     1  UNL1        0.0856
     18 C          62.6900   90.8474   10.5369 C.3     1  UNL1        0.0096
     19 C          61.2516   88.8450    9.7174 C.3     1  UNL1        0.0000
     20 C          62.5868   89.4205   10.0861 C.3     1  UNL1        0.0005
     21 C          63.6024   89.8031   15.5290 C.3     1  UNL1        0.1247
     22 C          63.6414   88.3051   15.5986 C.ar    1  UNL1       -0.0018
     23 C          63.0743   87.5947   16.7918 C.ar    1  UNL1        0.0005
     24 C          63.1133   86.0969   16.8613 C.ar    1  UNL1        0.0369
     25 C          63.7194   85.3094   15.7377 C.ar    1  UNL1        0.1468
     26 C          64.2865   86.0198   14.5446 C.ar    1  UNL1        0.0369
     27 C          64.2475   87.5177   14.4750 C.ar    1  UNL1        0.0005
     28 O          63.7584   83.8115   15.8073 O.3     1  UNL1       -0.4045
     29 C          62.9299   82.9949   14.8604 C.3     1  UNL1        0.5753
     30 F          62.1014   82.1783   13.9134 F       1  UNL1       -0.1328
     31 F          61.7265   83.8241   15.1982 F       1  UNL1       -0.1328
     32 F          64.1334   82.1657   14.5226 F       1  UNL1       -0.1328
@<TRIPOS>BOND
     1    19    20    1
     2    20    18    1
     3    18    17    1
     4    17     1    1
     5     1     2    2
     6     1     3   am
     7     3    21    1
     8    21    22    1
     9    22    23   ar
    10    23    24   ar
    11    24    25   ar
    12    25    28    1
    13    28    29    1
    14    29    30    1
    15    29    31    1
    16    29    32    1
    17    25    26   ar
    18    26    27   ar
    19     3     4    1
    20     4     5   ar
    21     5     6   ar
    22     6     7    1
    23     6     8   ar
    24     8     9   ar
    25     9    11    1
    26    11    12   ar
    27    12    13   ar
    28    13    14   ar
    29    14    15   ar
    30     9    10   ar
    31    27    22   ar
    32    10     4   ar
    33    15    11   ar
    34    15    16    1
@<TRIPOS>MOLECULE
*****
 32 34 0 0 0
SMALL
GASTEIGER

@<TRIPOS>ATOM
      1 C          61.9868   86.7429    9.7295 C.2     1  UNL1        0.2296
      2 O          61.3721   87.6923    8.7443 O.2     1  UNL1       -0.2745
      3 N          62.1338   87.1450   11.1672 N.am    1  UNL1       -0.2543
      4 C          62.7485   86.1955   12.1524 C.ar    1  UNL1        0.0551
      5 C          63.6739   86.7115   13.2141 C.ar    1  UNL1        0.0263
      6 C          64.2886   85.7620   14.1993 C.ar    1  UNL1        0.0590
      7 CL         65.2141   86.2780   15.2611 Cl      1  UNL1       -0.0822
      8 C          63.9779   84.2966   14.1228 C.ar    1  UNL1        0.0146
      9 C          63.0525   83.7806   13.0610 C.ar    1  UNL1        0.0392
     10 C          62.4378   84.7301   12.0759 C.ar    1  UNL1        0.0181
     11 C          62.7417   82.3151   12.9845 C.ar    1  UNL1        0.1806
     12 N          61.9913   81.5182   14.0100 N.ar    1  UNL1       -0.1083
     13 N          61.9126   80.0998   13.5283 N.ar    1  UNL1       -0.0229
     14 N          62.6144   80.0201   12.2050 N.ar    1  UNL1       -0.0464
     15 N          63.1268   81.3893   11.8689 N.ar    1  UNL1       -0.2388
     16 H          63.6279   81.6367   11.0584 H       1  UNL1        0.1923
     17 C          62.4545   85.3914    9.2772 C.3     1  UNL1        0.0856
     18 C          62.8185   85.1661    7.8396 C.3     1  UNL1        0.0096
     19 C          62.0901   84.2152    5.5341 C.3     1  UNL1        0.0000
     20 C          61.7454   84.8900    6.8286 C.3     1  UNL1        0.0005
     21 C          61.6661   88.4965   11.6195 C.3     1  UNL1        0.1247
     22 C          62.6225   89.6519   11.6434 C.ar    1  UNL1       -0.0018
     23 C          63.3494   89.9977   12.9091 C.ar    1  UNL1        0.0005
     24 C          64.3057   91.1531   12.9330 C.ar    1  UNL1        0.0369
     25 C          64.5351   91.9626   11.6912 C.ar    1  UNL1        0.1468
     26 C          63.8081   91.6168   10.4255 C.ar    1  UNL1        0.0369
     27 C          62.8518   90.4614   10.4017 C.ar    1  UNL1        0.0005
     28 O          65.4914   93.1180   11.7151 O.3     1  UNL1       -0.4045
     29 C          66.1205   93.5974   10.4406 C.3     1  UNL1        0.5753
     30 F          66.7495   94.0769    9.1660 F       1  UNL1       -0.1328
     31 F          65.2532   94.8208   10.4727 F       1  UNL1       -0.1328
     32 F          66.9877   92.3740   10.4084 F       1  UNL1       -0.1328
@<TRIPOS>BOND
     1    19    20    1
     2    20    18    1
     3    18    17    1
     4    17     1    1
     5     1     2    2
     6     1     3   am
     7     3    21    1
     8    21    22    1
     9    22    23   ar
    10    23    24   ar
    11    24    25   ar
    12    25    28    1
    13    28    29    1
    14    29    30    1
    15    29    31    1
    16    29    32    1
    17    25    26   ar
    18    26    27   ar
    19     3     4    1
    20     4     5   ar
    21     5     6   ar
    22     6     7    1
    23     6     8   ar
    24     8     9   ar
    25     9    11    1
    26    11    12   ar
    27    12    13   ar
    28    13    14   ar
    29    14    15   ar
    30     9    10   ar
    31    27    22   ar
    32    10     4   ar
    33    15    11   ar
    34    15    16    1
@<TRIPOS>MOLECULE
*****
 32 34 0 0 0
SMALL
GASTEIGER

@<TRIPOS>ATOM
      1 C          64.0240   88.2660   14.3337 C.2     1  UNL1        0.2296
      2 O          64.5505   89.1622   15.4152 O.2     1  UNL1       -0.2745
      3 N          63.3149   88.8551   13.1505 N.am    1  UNL1       -0.2543
      4 C          62.7885   87.9588   12.0690 C.ar    1  UNL1        0.0551
      5 C          61.9265   88.5245   10.9795 C.ar    1  UNL1        0.0263
      6 C          61.4001   87.6282    9.8981 C.ar    1  UNL1        0.0590
      7 CL         60.5381   88.1939    8.8085 Cl      1  UNL1       -0.0822
      8 C          61.7357   86.1663    9.9061 C.ar    1  UNL1        0.0146
      9 C          62.5977   85.6006   10.9956 C.ar    1  UNL1        0.0392
     10 C          63.1240   86.4969   12.0770 C.ar    1  UNL1        0.0181
     11 C          62.9332   84.1386   11.0036 C.ar    1  UNL1        0.1806
     12 N          63.7853   83.4240    9.9970 N.ar    1  UNL1       -0.1083
     13 N          63.8544   81.9783   10.3909 N.ar    1  UNL1       -0.0229
     14 N          63.0449   81.7994   11.6410 N.ar    1  UNL1       -0.0464
     15 N          62.4756   83.1345   12.0197 N.ar    1  UNL1       -0.2388
     16 H          61.9023   83.3194   12.7984 H       1  UNL1        0.1923
     17 C          64.2067   86.7806   14.4355 C.3     1  UNL1        0.0856
     18 C          64.3034   86.1274   15.7823 C.3     1  UNL1        0.0096
     19 C          62.6867   86.7026   17.7330 C.3     1  UNL1        0.0000
     20 C          63.0579   85.8365   16.5659 C.3     1  UNL1        0.0005
     21 C          63.1322   90.3404   13.0487 C.3     1  UNL1        0.1247
     22 C          64.2006   91.1864   12.4218 C.ar    1  UNL1       -0.0018
     23 C          64.1026   91.5673   10.9743 C.ar    1  UNL1        0.0005
     24 C          65.1710   92.4132   10.3475 C.ar    1  UNL1        0.0369
     25 C          66.3374   92.8781   11.1681 C.ar    1  UNL1        0.1468
     26 C          66.4354   92.4972   12.6156 C.ar    1  UNL1        0.0369
     27 C          65.3670   91.6513   13.2424 C.ar    1  UNL1        0.0005
     28 O          67.4058   93.7240   10.5412 O.3     1  UNL1       -0.4045
     29 C          68.1574   93.2186    9.3455 C.3     1  UNL1        0.5753
     30 F          68.9090   92.7132    8.1498 F       1  UNL1       -0.1328
     31 F          67.9281   94.5268    8.6484 F       1  UNL1       -0.1328
     32 F          68.3867   91.9104   10.0426 F       1  UNL1       -0.1328
@<TRIPOS>BOND
     1    19    20    1
     2    20    18    1
     3    18    17    1
     4    17     1    1
     5     1     2    2
     6     1     3   am
     7     3    21    1
     8    21    22    1
     9    22    23   ar
    10    23    24   ar
    11    24    25   ar
    12    25    28    1
    13    28    29    1
    14    29    30    1
    15    29    31    1
    16    29    32    1
    17    25    26   ar
    18    26    27   ar
    19     3     4    1
    20     4     5   ar
    21     5     6   ar
    22     6     7    1
    23     6     8   ar
    24     8     9   ar
    25     9    11    1
    26    11    12   ar
    27    12    13   ar
    28    13    14   ar
    29    14    15   ar
    30     9    10   ar
    31    27    22   ar
    32    10     4   ar
    33    15    11   ar
    34    15    16    1
@<TRIPOS>MOLECULE
*****
 32 34 0 0 0
SMALL
GASTEIGER

@<TRIPOS>ATOM
      1 C          65.2689   91.4373   13.6804 C.2     1  UNL1        0.2296
      2 O          65.4534   92.7274   12.9379 O.2     1  UNL1       -0.2745
      3 N          64.0166   90.6341   13.4888 N.am    1  UNL1       -0.2543
      4 C          63.8321   89.3439   14.2314 C.ar    1  UNL1        0.0551
      5 C          63.5287   89.3607   15.7002 C.ar    1  UNL1        0.0263
      6 C          63.3443   88.0705   16.4427 C.ar    1  UNL1        0.0590
      7 CL         63.0409   88.0872   17.9117 Cl      1  UNL1       -0.0822
      8 C          63.4632   86.7635   15.7163 C.ar    1  UNL1        0.0146
      9 C          63.7666   86.7467   14.2474 C.ar    1  UNL1        0.0392
     10 C          63.9511   88.0369   13.5050 C.ar    1  UNL1        0.0181
     11 C          63.8855   85.4397   13.5210 C.ar    1  UNL1        0.1806
     12 N          63.1207   85.0401   12.2941 N.ar    1  UNL1       -0.1083
     13 N          63.5526   83.6563   11.9088 N.ar    1  UNL1       -0.0229
     14 N          64.5844   83.2006   12.8976 N.ar    1  UNL1       -0.0464
     15 N          64.7901   84.3028   13.8940 N.ar    1  UNL1       -0.2388
     16 H          65.4101   84.2835   14.6586 H       1  UNL1        0.1923
     17 C          66.3367   90.9501   14.6146 C.3     1  UNL1        0.0856
     18 C          67.6021   91.7378   14.7832 C.3     1  UNL1        0.0096
     19 C          68.7944   93.7380   15.9355 C.3     1  UNL1        0.0000
     20 C          67.7700   92.6427   15.9676 C.3     1  UNL1        0.0005
     21 C          62.9488   91.1212   12.5547 C.3     1  UNL1        0.1247
     22 C          62.1414   90.1376   11.7605 C.ar    1  UNL1       -0.0018
     23 C          62.7083   89.5413   10.5063 C.ar    1  UNL1        0.0005
     24 C          61.9009   88.5578    9.7121 C.ar    1  UNL1        0.0369
     25 C          60.5266   88.1706   10.1720 C.ar    1  UNL1        0.1468
     26 C          59.9598   88.7670   11.4262 C.ar    1  UNL1        0.0369
     27 C          60.7672   89.7505   12.2204 C.ar    1  UNL1        0.0005
     28 O          59.7192   87.1871    9.3777 O.3     1  UNL1       -0.4045
     29 C          60.3962   86.2893    8.3849 C.3     1  UNL1        0.5753
     30 F          61.0732   85.3915    7.3921 F       1  UNL1       -0.1328
     31 F          61.0291   85.5237    9.5088 F       1  UNL1       -0.1328
     32 F          59.7633   87.0550    7.2611 F       1  UNL1       -0.1328
@<TRIPOS>BOND
     1    19    20    1
     2    20    18    1
     3    18    17    1
     4    17     1    1
     5     1     2    2
     6     1     3   am
     7     3    21    1
     8    21    22    1
     9    22    23   ar
    10    23    24   ar
    11    24    25   ar
    12    25    28    1
    13    28    29    1
    14    29    30    1
    15    29    31    1
    16    29    32    1
    17    25    26   ar
    18    26    27   ar
    19     3     4    1
    20     4     5   ar
    21     5     6   ar
    22     6     7    1
    23     6     8   ar
    24     8     9   ar
    25     9    11    1
    26    11    12   ar
    27    12    13   ar
    28    13    14   ar
    29    14    15   ar
    30     9    10   ar
    31    27    22   ar
    32    10     4   ar
    33    15    11   ar
    34    15    16    1
@<TRIPOS>MOLECULE
*****
 32 34 0 0 0
SMALL
GASTEIGER

@<TRIPOS>ATOM
      1 C          62.4424   83.4626   15.0688 C.2     1  UNL1        0.2296
      2 O          62.5085   83.4045   16.5661 O.2     1  UNL1       -0.2745
      3 N          63.3717   84.3643   14.3115 N.am    1  UNL1       -0.2543
      4 C          63.3056   84.4224   12.8140 C.ar    1  UNL1        0.0551
      5 C          64.0571   83.4189   11.9906 C.ar    1  UNL1        0.0263
      6 C          63.9910   83.4770   10.4932 C.ar    1  UNL1        0.0590
      7 CL         64.7426   82.4734    9.6697 Cl      1  UNL1       -0.0822
      8 C          63.1734   84.5388    9.8193 C.ar    1  UNL1        0.0146
      9 C          62.4219   85.5423   10.6427 C.ar    1  UNL1        0.0392
     10 C          62.4880   85.4841   12.1400 C.ar    1  UNL1        0.0181
     11 C          61.6043   86.6040    9.9687 C.ar    1  UNL1        0.1806
     12 N          61.7838   88.0853   10.1221 N.ar    1  UNL1       -0.1083
     13 N          60.7540   88.7677    9.2712 N.ar    1  UNL1       -0.0229
     14 N          59.9381   87.7081    8.5919 N.ar    1  UNL1       -0.0464
     15 N          60.4635   86.3709    9.0230 N.ar    1  UNL1       -0.2388
     16 H          60.1200   85.4942    8.7357 H       1  UNL1        0.1923
     17 C          61.4471   82.6191   14.3286 C.3     1  UNL1        0.0856
     18 C          61.5562   81.1236   14.3662 C.3     1  UNL1        0.0096
     19 C          62.6791   80.2547   12.1904 C.3     1  UNL1        0.0000
     20 C          62.6995   80.4375   13.6791 C.3     1  UNL1        0.0005
     21 C          64.3671   85.2078   15.0516 C.3     1  UNL1        0.1247
     22 C          64.1369   86.6826   15.2004 C.ar    1  UNL1       -0.0018
     23 C          64.5503   87.6204   14.1052 C.ar    1  UNL1        0.0005
     24 C          64.3201   89.0951   14.2541 C.ar    1  UNL1        0.0369
     25 C          63.6766   89.6320   15.4981 C.ar    1  UNL1        0.1468
     26 C          63.2632   88.6941   16.5933 C.ar    1  UNL1        0.0369
     27 C          63.4933   87.2194   16.4445 C.ar    1  UNL1        0.0005
     28 O          63.4464   91.1068   15.6470 O.3     1  UNL1       -0.4045
     29 C          64.6097   92.0298   15.8581 C.3     1  UNL1        0.5753
     30 F          65.7731   92.9530   16.0692 F       1  UNL1       -0.1328
     31 F          64.8992   92.0016   14.3866 F       1  UNL1       -0.1328
     32 F          64.3202   92.0581   17.3296 F       1  UNL1       -0.1328
@<TRIPOS>BOND
     1    19    20    1
     2    20    18    1
     3    18    17    1
     4    17     1    1
     5     1     2    2
     6     1     3   am
     7     3    21    1
     8    21    22    1
     9    22    23   ar
    10    23    24   ar
    11    24    25   ar
    12    25    28    1
    13    28    29    1
    14    29    30    1
    15    29    31    1
    16    29    32    1
    17    25    26   ar
    18    26    27   ar
    19     3     4    1
    20     4     5   ar
    21     5     6   ar
    22     6     7    1
    23     6     8   ar
    24     8     9   ar
    25     9    11    1
    26    11    12   ar
    27    12    13   ar
    28    13    14   ar
    29    14    15   ar
    30     9    10   ar
    31    27    22   ar
    32    10     4   ar
    33    15    11   ar
    34    15    16    1
@<TRIPOS>MOLECULE
*****
 32 34 0 0 0
SMALL
GASTEIGER

@<TRIPOS>ATOM
      1 C          62.8107   90.1280   14.3459 C.2     1  UNL1        0.2296
      2 O          61.4208   89.5640   14.3477 O.2     1  UNL1       -0.2745
      3 N          63.3658   90.7508   13.0993 N.am    1  UNL1       -0.2543
      4 C          64.7558   91.3148   13.0976 C.ar    1  UNL1        0.0551
      5 C          65.6255   91.1698   14.3110 C.ar    1  UNL1        0.0263
      6 C          67.0154   91.7338   14.3092 C.ar    1  UNL1        0.0590
      7 CL         67.8853   91.5887   15.5226 Cl      1  UNL1       -0.0822
      8 C          67.5356   92.4428   13.0940 C.ar    1  UNL1        0.0146
      9 C          66.6658   92.5879   11.8806 C.ar    1  UNL1        0.0392
     10 C          65.2759   92.0239   11.8824 C.ar    1  UNL1        0.0181
     11 C          67.1859   93.2969   10.6654 C.ar    1  UNL1        0.1806
     12 N          67.8327   92.6502    9.4765 N.ar    1  UNL1       -0.1083
     13 N          68.1971   93.7307    8.5020 N.ar    1  UNL1       -0.0229
     14 N          67.7755   95.0453    9.0886 N.ar    1  UNL1       -0.0464
     15 N          67.1506   94.7772   10.4256 N.ar    1  UNL1       -0.2388
     16 H          66.7819   95.4540   11.0382 H       1  UNL1        0.1923
     17 C          63.6457   90.0691   15.5907 C.3     1  UNL1        0.0856
     18 C          63.1796   89.2665   16.7691 C.3     1  UNL1        0.0096
     19 C          62.7891   86.9645   17.9085 C.3     1  UNL1        0.0000
     20 C          63.1851   87.7679   16.7053 C.3     1  UNL1        0.0005
     21 C          62.5310   90.8097   11.8545 C.3     1  UNL1        0.1247
     22 C          62.1226   89.5419   11.1647 C.ar    1  UNL1       -0.0018
     23 C          62.6807   88.2265   11.6209 C.ar    1  UNL1        0.0005
     24 C          62.2723   86.9587   10.9310 C.ar    1  UNL1        0.0369
     25 C          61.3058   87.0063    9.7849 C.ar    1  UNL1        0.1468
     26 C          60.7476   88.3217    9.3287 C.ar    1  UNL1        0.0369
     27 C          61.1560   89.5895   10.0186 C.ar    1  UNL1        0.0005
     28 O          60.8974   85.7385    9.0951 O.3     1  UNL1       -0.4045
     29 C          61.4574   85.4059    7.7439 C.3     1  UNL1        0.5753
     30 F          62.0175   85.0734    6.3927 F       1  UNL1       -0.1328
     31 F          60.0771   85.4574    7.1591 F       1  UNL1       -0.1328
     32 F          62.8377   85.3545    8.3287 F       1  UNL1       -0.1328
@<TRIPOS>BOND
     1    19    20    1
     2    20    18    1
     3    18    17    1
     4    17     1    1
     5     1     2    2
     6     1     3   am
     7     3    21    1
     8    21    22    1
     9    22    23   ar
    10    23    24   ar
    11    24    25   ar
    12    25    28    1
    13    28    29    1
    14    29    30    1
    15    29    31    1
    16    29    32    1
    17    25    26   ar
    18    26    27   ar
    19     3     4    1
    20     4     5   ar
    21     5     6   ar
    22     6     7    1
    23     6     8   ar
    24     8     9   ar
    25     9    11    1
    26    11    12   ar
    27    12    13   ar
    28    13    14   ar
    29    14    15   ar
    30     9    10   ar
    31    27    22   ar
    32    10     4   ar
    33    15    11   ar
    34    15    16    1
