@<TRIPOS>MOLECULE
*****
 28 31 0 0 0
SMALL
GASTEIGER

@<TRIPOS>ATOM
      1 C          64.1667   84.7510   13.4991 C.2     1  UNL1        0.1514
      2 N          64.8936   85.4067   14.6356 N.2     1  UNL1       -0.2531
      3 C          64.2626   86.5540   15.3673 C.3     1  UNL1        0.1051
      4 C          64.4089   87.9509   14.8405 C.3     1  UNL1        0.0244
      5 C          63.7779   89.0983   15.5721 C.3     1  UNL1        0.0020
      6 C          63.0005   88.8488   16.8304 C.3     1  UNL1        0.0001
      7 C          62.8542   87.4520   17.3572 C.3     1  UNL1        0.0020
      8 C          63.4853   86.3046   16.6256 C.3     1  UNL1        0.0244
      9 N          64.7979   83.6037   12.7675 N.pl3   1  UNL1       -0.3151
     10 H          65.7199   83.6817   12.4314 H       1  UNL1        0.1486
     11 C          64.0242   82.3374   12.5480 C.3     1  UNL1        0.0708
     12 C          63.5649   81.5260   13.7229 C.3     1  UNL1        0.0195
     13 C          62.7913   80.2597   13.5035 C.3     1  UNL1        0.0017
     14 C          62.4770   79.8051   12.1091 C.3     1  UNL1        0.0001
     15 C          62.9363   80.6165   10.9341 C.3     1  UNL1        0.0017
     16 C          63.7099   81.8828   11.1535 C.3     1  UNL1        0.0195
     17 S          62.8087   85.2427   13.0942 S.3     1  UNL1       -0.0744
     18 C          62.4971   85.4774   11.6458 C.3     1  UNL1        0.1066
     19 C          59.0872   86.7617    7.4470 C.3     1  UNL1        0.0262
     20 C          59.8232   87.8327    8.1962 C.3     1  UNL1        0.1051
     21 C          59.1179   88.7593    7.2507 C.3     1  UNL1        0.0262
     22 C          60.3747   86.6822    8.9851 C.3     1  UNL1        0.1194
     23 N          61.3040   87.2358   10.0242 N.pl3   1  UNL1       -0.2679
     24 C          62.2192   86.8670   11.1540 C.2     1  UNL1        0.0484
     25 C          62.8077   88.1316   11.7055 C.2     1  UNL1        0.0494
     26 S          62.2563   89.2821   10.9167 S.3     1  UNL1       -0.0516
     27 C          61.3270   88.7285    9.8776 C.2     1  UNL1        0.1622
     28 N          60.4118   89.0973    8.7478 N.2     1  UNL1       -0.2526
@<TRIPOS>BOND
     1    19    20    1
     2    20    21    1
     3    20    22    1
     4    22    23    1
     5    23    24    1
     6    24    18    1
     7    18    17    1
     8    17     1    1
     9     1     2    2
    10     2     3    1
    11     3     4    1
    12     4     5    1
    13     5     6    1
    14     6     7    1
    15     7     8    1
    16     1     9    1
    17     9    11    1
    18    11    12    1
    19    12    13    1
    20    13    14    1
    21    14    15    1
    22    15    16    1
    23    24    25    2
    24    25    26    1
    25    26    27    1
    26    27    28    2
    27    28    20    1
    28    27    23    1
    29     8     3    1
    30    16    11    1
    31     9    10    1
@<TRIPOS>MOLECULE
*****
 28 31 0 0 0
SMALL
GASTEIGER

@<TRIPOS>ATOM
      1 C          63.4451   90.2394   14.2309 C.2     1  UNL1        0.1514
      2 N          64.0582   91.5698   13.9080 N.2     1  UNL1       -0.2531
      3 C          65.4633   91.8721   14.3371 C.3     1  UNL1        0.1051
      4 C          66.6003   91.6662   13.3806 C.3     1  UNL1        0.0244
      5 C          68.0055   91.9684   13.8097 C.3     1  UNL1        0.0020
      6 C          68.2736   92.4766   15.1952 C.3     1  UNL1        0.0001
      7 C          67.1367   92.6825   16.1518 C.3     1  UNL1        0.0020
      8 C          65.7315   92.3802   15.7227 C.3     1  UNL1        0.0244
      9 N          62.0399   89.9372   13.8017 N.pl3   1  UNL1       -0.3151
     10 H          61.3218   89.8803   14.4728 H       1  UNL1        0.1486
     11 C          61.7289   89.7217   12.3502 C.3     1  UNL1        0.0708
     12 C          60.4317   90.2139   11.7801 C.3     1  UNL1        0.0195
     13 C          60.1206   89.9985   10.3286 C.3     1  UNL1        0.0017
     14 C          61.1067   89.2909    9.4473 C.3     1  UNL1        0.0001
     15 C          62.4039   88.7987   10.0174 C.3     1  UNL1        0.0017
     16 C          62.7150   89.0141   11.4689 C.3     1  UNL1        0.0195
     17 S          64.2371   89.2113   14.9831 S.3     1  UNL1       -0.0744
     18 C          64.4364   87.8439   14.3997 C.3     1  UNL1        0.1066
     19 C          64.3085   82.6938   12.3100 C.3     1  UNL1        0.0262
     20 C          63.7685   82.9826   13.6793 C.3     1  UNL1        0.1051
     21 C          63.4638   81.5140   13.6972 C.3     1  UNL1        0.0262
     22 C          64.1861   84.3909   13.3751 C.3     1  UNL1        0.1194
     23 N          63.8405   85.2431   14.5602 N.pl3   1  UNL1       -0.2679
     24 C          63.8850   86.6401   15.1046 C.2     1  UNL1        0.0484
     25 C          63.2814   86.6219   16.4776 C.2     1  UNL1        0.0494
     26 S          62.8638   85.2137   16.7818 S.3     1  UNL1       -0.0516
     27 C          63.2094   84.3615   15.5967 C.2     1  UNL1        0.1622
     28 N          63.1648   82.9645   15.0523 N.2     1  UNL1       -0.2526
@<TRIPOS>BOND
     1    19    20    1
     2    20    21    1
     3    20    22    1
     4    22    23    1
     5    23    24    1
     6    24    18    1
     7    18    17    1
     8    17     1    1
     9     1     2    2
    10     2     3    1
    11     3     4    1
    12     4     5    1
    13     5     6    1
    14     6     7    1
    15     7     8    1
    16     1     9    1
    17     9    11    1
    18    11    12    1
    19    12    13    1
    20    13    14    1
    21    14    15    1
    22    15    16    1
    23    24    25    2
    24    25    26    1
    25    26    27    1
    26    27    28    2
    27    28    20    1
    28    27    23    1
    29     8     3    1
    30    16    11    1
    31     9    10    1
@<TRIPOS>MOLECULE
*****
 28 31 0 0 0
SMALL
GASTEIGER

@<TRIPOS>ATOM
      1 C          63.3434   88.4429   12.5662 C.2     1  UNL1        0.1514
      2 N          62.8019   87.0975   12.1833 N.2     1  UNL1       -0.2531
      3 C          61.9621   86.9506   10.9492 C.3     1  UNL1        0.1051
      4 C          62.4804   86.1699    9.7779 C.3     1  UNL1        0.0244
      5 C          61.6407   86.0229    8.5438 C.3     1  UNL1        0.0020
      6 C          60.2826   86.6566    8.4809 C.3     1  UNL1        0.0001
      7 C          59.7642   87.4373    9.6521 C.3     1  UNL1        0.0020
      8 C          60.6040   87.5843   10.8863 C.3     1  UNL1        0.0244
      9 N          64.1833   88.5898   13.8004 N.pl3   1  UNL1       -0.3151
     10 H          64.9708   89.1805   13.7924 H       1  UNL1        0.1486
     11 C          63.8233   87.8366   15.0466 C.3     1  UNL1        0.0708
     12 C          63.2132   88.5602   16.2103 C.3     1  UNL1        0.0195
     13 C          62.8532   87.8071   17.4566 C.3     1  UNL1        0.0017
     14 C          63.1033   86.3304   17.5392 C.3     1  UNL1        0.0001
     15 C          63.7133   85.6069   16.3755 C.3     1  UNL1        0.0017
     16 C          64.0734   86.3599   15.1292 C.3     1  UNL1        0.0195
     17 S          63.0452   89.6415   11.7150 S.3     1  UNL1       -0.0744
     18 C          63.1949   91.0213   12.2838 C.3     1  UNL1        0.1066
     19 C          66.6678   92.5084   16.3623 C.3     1  UNL1        0.0262
     20 C          66.9665   92.8523   14.9331 C.3     1  UNL1        0.1051
     21 C          68.1988   93.4858   15.5076 C.3     1  UNL1        0.0262
     22 C          65.6718   92.1469   14.6573 C.3     1  UNL1        0.1194
     23 N          65.4279   92.1872   13.1778 N.pl3   1  UNL1       -0.2679
     24 C          64.4770   91.7762   12.0930 C.2     1  UNL1        0.0484
     25 C          65.0333   92.2525   10.7840 C.2     1  UNL1        0.0494
     26 S          66.3280   92.9579   11.0597 S.3     1  UNL1       -0.0516
     27 C          66.5719   92.9176   12.5392 C.2     1  UNL1        0.1622
     28 N          67.5228   93.3286   13.6240 N.2     1  UNL1       -0.2526
@<TRIPOS>BOND
     1    19    20    1
     2    20    21    1
     3    20    22    1
     4    22    23    1
     5    23    24    1
     6    24    18    1
     7    18    17    1
     8    17     1    1
     9     1     2    2
    10     2     3    1
    11     3     4    1
    12     4     5    1
    13     5     6    1
    14     6     7    1
    15     7     8    1
    16     1     9    1
    17     9    11    1
    18    11    12    1
    19    12    13    1
    20    13    14    1
    21    14    15    1
    22    15    16    1
    23    24    25    2
    24    25    26    1
    25    26    27    1
    26    27    28    2
    27    28    20    1
    28    27    23    1
    29     8     3    1
    30    16    11    1
    31     9    10    1
@<TRIPOS>MOLECULE
*****
 28 31 0 0 0
SMALL
GASTEIGER

@<TRIPOS>ATOM
      1 C          64.1164   84.7076   13.3476 C.2     1  UNL1        0.1514
      2 N          64.8214   85.2422   14.5588 N.2     1  UNL1       -0.2531
      3 C          64.2248   86.3803   15.3326 C.3     1  UNL1        0.1051
      4 C          64.3928   87.7887   14.8443 C.3     1  UNL1        0.0244
      5 C          63.7962   88.9268   15.6181 C.3     1  UNL1        0.0020
      6 C          63.0317   88.6566   16.8800 C.3     1  UNL1        0.0001
      7 C          62.8638   87.2482   17.3682 C.3     1  UNL1        0.0020
      8 C          63.4603   86.1101   16.5945 C.3     1  UNL1        0.0244
      9 N          64.7130   83.5695   12.5738 N.pl3   1  UNL1       -0.3151
     10 H          65.5964   83.6711   12.1513 H       1  UNL1        0.1486
     11 C          63.9638   82.2764   12.4438 C.3     1  UNL1        0.0708
     12 C          63.7044   81.6932   11.0864 C.3     1  UNL1        0.0195
     13 C          62.9553   80.4002   10.9563 C.3     1  UNL1        0.0017
     14 C          62.4655   79.6905   12.1836 C.3     1  UNL1        0.0001
     15 C          62.7249   80.2737   13.5410 C.3     1  UNL1        0.0017
     16 C          63.4741   81.5667   13.6711 C.3     1  UNL1        0.0195
     17 S          62.8146   85.3110   12.9101 S.3     1  UNL1       -0.0744
     18 C          62.2629   84.9995   11.5505 C.3     1  UNL1        0.1066
     19 C          63.5587   90.3670   12.1963 C.3     1  UNL1        0.0262
     20 C          62.6879   89.9164   11.0611 C.3     1  UNL1        0.1051
     21 C          62.6661   91.3738   10.7065 C.3     1  UNL1        0.0262
     22 C          62.8917   88.5533   11.6530 C.3     1  UNL1        0.1194
     23 N          62.1423   87.5649   10.8095 N.pl3   1  UNL1       -0.2679
     24 C          61.8051   86.1116   10.6540 C.2     1  UNL1        0.0484
     25 C          60.9297   85.9657    9.4448 C.2     1  UNL1        0.0494
     26 S          60.7259   87.3287    8.8529 S.3     1  UNL1       -0.0516
     27 C          61.4753   88.3172    9.6963 C.2     1  UNL1        0.1622
     28 N          61.8125   89.7705    9.8518 N.2     1  UNL1       -0.2526
@<TRIPOS>BOND
     1    19    20    1
     2    20    21    1
     3    20    22    1
     4    22    23    1
     5    23    24    1
     6    24    18    1
     7    18    17    1
     8    17     1    1
     9     1     2    2
    10     2     3    1
    11     3     4    1
    12     4     5    1
    13     5     6    1
    14     6     7    1
    15     7     8    1
    16     1     9    1
    17     9    11    1
    18    11    12    1
    19    12    13    1
    20    13    14    1
    21    14    15    1
    22    15    16    1
    23    24    25    2
    24    25    26    1
    25    26    27    1
    26    27    28    2
    27    28    20    1
    28    27    23    1
    29     8     3    1
    30    16    11    1
    31     9    10    1
@<TRIPOS>MOLECULE
*****
 28 31 0 0 0
SMALL
GASTEIGER

@<TRIPOS>ATOM
      1 C          63.5769   90.2271   14.1283 C.2     1  UNL1        0.1514
      2 N          64.1042   91.6307   14.0857 N.2     1  UNL1       -0.2531
      3 C          65.5303   91.9079   14.4589 C.3     1  UNL1        0.1051
      4 C          66.6200   91.7254   13.4445 C.3     1  UNL1        0.0244
      5 C          68.0462   92.0026   13.8176 C.3     1  UNL1        0.0020
      6 C          68.3826   92.4622   15.2053 C.3     1  UNL1        0.0001
      7 C          67.2928   92.6447   16.2198 C.3     1  UNL1        0.0020
      8 C          65.8667   92.3675   15.8466 C.3     1  UNL1        0.0244
      9 N          62.1508   89.9500   13.7550 N.pl3   1  UNL1       -0.3151
     10 H          61.4742   89.8204   14.4583 H       1  UNL1        0.1486
     11 C          61.7555   89.8703   12.3102 C.3     1  UNL1        0.0708
     12 C          60.3153   89.6810   11.9361 C.3     1  UNL1        0.0195
     13 C          59.9199   89.6013   10.4913 C.3     1  UNL1        0.0017
     14 C          60.9648   89.7109    9.4207 C.3     1  UNL1        0.0001
     15 C          62.4050   89.9002    9.7948 C.3     1  UNL1        0.0017
     16 C          62.8004   89.9799   11.2396 C.3     1  UNL1        0.0195
     17 S          64.4758   89.1005   14.5441 S.3     1  UNL1       -0.0744
     18 C          63.9151   87.9348   15.3036 C.3     1  UNL1        0.1066
     19 C          62.0521   86.1957   10.3628 C.3     1  UNL1        0.0262
     20 C          62.7757   85.2603   11.2855 C.3     1  UNL1        0.1051
     21 C          62.5480   84.2580   10.1931 C.3     1  UNL1        0.0262
     22 C          62.8522   86.4582   12.1851 C.3     1  UNL1        0.1194
     23 N          63.5755   86.0536   13.4353 N.pl3   1  UNL1       -0.2679
     24 C          64.0697   86.5438   14.7640 C.2     1  UNL1        0.0484
     25 C          64.7457   85.3989   15.4583 C.2     1  UNL1        0.0494
     26 S          64.6693   84.2010   14.5588 S.3     1  UNL1       -0.0516
     27 C          63.9460   84.6056   13.3085 C.2     1  UNL1        0.1622
     28 N          63.4517   84.1154   11.9798 N.2     1  UNL1       -0.2526
@<TRIPOS>BOND
     1    19    20    1
     2    20    21    1
     3    20    22    1
     4    22    23    1
     5    23    24    1
     6    24    18    1
     7    18    17    1
     8    17     1    1
     9     1     2    2
    10     2     3    1
    11     3     4    1
    12     4     5    1
    13     5     6    1
    14     6     7    1
    15     7     8    1
    16     1     9    1
    17     9    11    1
    18    11    12    1
    19    12    13    1
    20    13    14    1
    21    14    15    1
    22    15    16    1
    23    24    25    2
    24    25    26    1
    25    26    27    1
    26    27    28    2
    27    28    20    1
    28    27    23    1
    29     8     3    1
    30    16    11    1
    31     9    10    1
@<TRIPOS>MOLECULE
*****
 28 31 0 0 0
SMALL
GASTEIGER

@<TRIPOS>ATOM
      1 C          63.9368   90.7450   13.7444 C.2     1  UNL1        0.1514
      2 N          64.5970   90.1631   14.9591 N.2     1  UNL1       -0.2531
      3 C          64.1219   88.8540   15.5164 C.3     1  UNL1        0.1051
      4 C          63.2273   88.8319   16.7203 C.3     1  UNL1        0.0244
      5 C          62.7522   87.5229   17.2777 C.3     1  UNL1        0.0020
      6 C          63.1716   86.2360   16.6312 C.3     1  UNL1        0.0001
      7 C          64.0662   86.2581   15.4273 C.3     1  UNL1        0.0020
      8 C          64.5413   87.5671   14.8699 C.3     1  UNL1        0.0244
      9 N          64.4120   92.0540   13.1872 N.pl3   1  UNL1       -0.3151
     10 H          63.8914   92.8745   13.3457 H       1  UNL1        0.1486
     11 C          65.6803   92.1132   12.3884 C.3     1  UNL1        0.0708
     12 C          65.6323   92.4584   10.9295 C.3     1  UNL1        0.0195
     13 C          66.9005   92.5175   10.1306 C.3     1  UNL1        0.0017
     14 C          68.2166   92.2314   10.7908 C.3     1  UNL1        0.0001
     15 C          68.2646   91.8862   12.2497 C.3     1  UNL1        0.0017
     16 C          66.9964   91.8270   13.0485 C.3     1  UNL1        0.0195
     17 S          62.8015   90.0178   13.0869 S.3     1  UNL1       -0.0744
     18 C          62.9207   89.5761   11.6584 C.3     1  UNL1        0.1066
     19 C          59.3659   88.7435    7.4659 C.3     1  UNL1        0.0262
     20 C          59.8691   87.5944    8.2884 C.3     1  UNL1        0.1051
     21 C          59.0043   86.7707    7.3808 C.3     1  UNL1        0.0262
     22 C          60.6287   88.6583    9.0241 C.3     1  UNL1        0.1194
     23 N          61.4205   87.9946   10.1115 N.pl3   1  UNL1       -0.2679
     24 C          62.3794   88.2418   11.2382 C.2     1  UNL1        0.0484
     25 C          62.7017   86.9206   11.8709 C.2     1  UNL1        0.0494
     26 S          61.9422   85.8567   11.1353 S.3     1  UNL1       -0.0516
     27 C          61.1503   86.5205   10.0479 C.2     1  UNL1        0.1622
     28 N          60.1915   86.2732    8.9211 N.2     1  UNL1       -0.2526
@<TRIPOS>BOND
     1    19    20    1
     2    20    21    1
     3    20    22    1
     4    22    23    1
     5    23    24    1
     6    24    18    1
     7    18    17    1
     8    17     1    1
     9     1     2    2
    10     2     3    1
    11     3     4    1
    12     4     5    1
    13     5     6    1
    14     6     7    1
    15     7     8    1
    16     1     9    1
    17     9    11    1
    18    11    12    1
    19    12    13    1
    20    13    14    1
    21    14    15    1
    22    15    16    1
    23    24    25    2
    24    25    26    1
    25    26    27    1
    26    27    28    2
    27    28    20    1
    28    27    23    1
    29     8     3    1
    30    16    11    1
    31     9    10    1
@<TRIPOS>MOLECULE
*****
 28 31 0 0 0
SMALL
GASTEIGER

@<TRIPOS>ATOM
      1 C          64.1285   84.9463   13.3923 C.2     1  UNL1        0.1514
      2 N          64.8154   85.4954   14.6075 N.2     1  UNL1       -0.2531
      3 C          64.2199   86.6582   15.3445 C.3     1  UNL1        0.1051
      4 C          63.4403   86.4273   16.6051 C.3     1  UNL1        0.0244
      5 C          62.8447   87.5900   17.3422 C.3     1  UNL1        0.0020
      6 C          63.0287   88.9836   16.8188 C.3     1  UNL1        0.0001
      7 C          63.8083   89.2145   15.5582 C.3     1  UNL1        0.0020
      8 C          64.4038   88.0518   14.8211 C.3     1  UNL1        0.0244
      9 N          64.7241   83.7835   12.6553 N.pl3   1  UNL1       -0.3151
     10 H          65.6078   83.8707   12.2301 H       1  UNL1        0.1486
     11 C          63.9734   82.4879   12.5661 C.3     1  UNL1        0.0708
     12 C          63.5528   81.7771   13.8182 C.3     1  UNL1        0.0195
     13 C          62.8022   80.4815   13.7291 C.3     1  UNL1        0.0017
     14 C          62.4721   79.8968   12.3878 C.3     1  UNL1        0.0001
     15 C          62.8927   80.6076   11.1357 C.3     1  UNL1        0.0017
     16 C          63.6434   81.9032   11.2248 C.3     1  UNL1        0.0195
     17 S          62.8460   85.5599   12.9142 S.3     1  UNL1       -0.0744
     18 C          62.8782   86.7198   11.9636 C.3     1  UNL1        0.1066
     19 C          63.0232   84.2912    6.9648 C.3     1  UNL1        0.0262
     20 C          61.8702   85.1638    7.3636 C.3     1  UNL1        0.1051
     21 C          61.3502   84.8323    5.9962 C.3     1  UNL1        0.0262
     22 C          62.6311   85.3129    8.6476 C.3     1  UNL1        0.1194
     23 N          61.8397   86.2084    9.5542 N.pl3   1  UNL1       -0.2679
     24 C          61.8209   86.8540   10.9080 C.2     1  UNL1        0.0484
     25 C          60.5592   87.6573   11.0209 C.2     1  UNL1        0.0494
     26 S          59.7983   87.5083    9.7370 S.3     1  UNL1       -0.0516
     27 C          60.5896   86.6128    8.8304 C.2     1  UNL1        0.1622
     28 N          60.6085   85.9672    7.4766 N.2     1  UNL1       -0.2526
@<TRIPOS>BOND
     1    19    20    1
     2    20    21    1
     3    20    22    1
     4    22    23    1
     5    23    24    1
     6    24    18    1
     7    18    17    1
     8    17     1    1
     9     1     2    2
    10     2     3    1
    11     3     4    1
    12     4     5    1
    13     5     6    1
    14     6     7    1
    15     7     8    1
    16     1     9    1
    17     9    11    1
    18    11    12    1
    19    12    13    1
    20    13    14    1
    21    14    15    1
    22    15    16    1
    23    24    25    2
    24    25    26    1
    25    26    27    1
    26    27    28    2
    27    28    20    1
    28    27    23    1
    29     8     3    1
    30    16    11    1
    31     9    10    1
@<TRIPOS>MOLECULE
*****
 28 31 0 0 0
SMALL
GASTEIGER

@<TRIPOS>ATOM
      1 C          62.6771   87.9254   11.6120 C.2     1  UNL1        0.1514
      2 N          62.5841   86.4368   11.7709 N.2     1  UNL1       -0.2531
      3 C          63.1336   85.7780   13.0013 C.3     1  UNL1        0.1051
      4 C          64.0894   86.5214   13.8866 C.3     1  UNL1        0.0244
      5 C          64.6391   85.8628   15.1171 C.3     1  UNL1        0.0020
      6 C          64.2329   84.4606   15.4622 C.3     1  UNL1        0.0001
      7 C          63.2771   83.7172   14.5768 C.3     1  UNL1        0.0020
      8 C          62.7275   84.3759   13.3464 C.3     1  UNL1        0.0244
      9 N          62.1274   88.5841   10.3815 N.pl3   1  UNL1       -0.3151
     10 H          62.2837   89.5435   10.2252 H       1  UNL1        0.1486
     11 C          61.3397   87.7812    9.3891 C.3     1  UNL1        0.0708
     12 C          61.9280   86.5349    8.7969 C.3     1  UNL1        0.0195
     13 C          61.1404   85.7319    7.8046 C.3     1  UNL1        0.0017
     14 C          59.7644   86.1752    7.4045 C.3     1  UNL1        0.0001
     15 C          59.1761   87.4215    7.9967 C.3     1  UNL1        0.0017
     16 C          59.9637   88.2245    8.9890 C.3     1  UNL1        0.0195
     17 S          63.3197   88.7554   12.6835 S.3     1  UNL1       -0.0744
     18 C          63.0412   90.2273   12.7604 C.3     1  UNL1        0.1066
     19 C          66.7092   92.5131   16.2572 C.3     1  UNL1        0.0262
     20 C          66.7187   92.8584   14.7975 C.3     1  UNL1        0.1051
     21 C          67.8702   93.7423   15.1752 C.3     1  UNL1        0.0262
     22 C          65.5652   91.9023   14.7249 C.3     1  UNL1        0.1194
     23 N          65.1026   91.8414   13.2994 N.pl3   1  UNL1       -0.2679
     24 C          64.1038   91.2128   12.3734 C.2     1  UNL1        0.0484
     25 C          64.3541   91.7429   10.9928 C.2     1  UNL1        0.0494
     26 S          65.5075   92.6989   11.0653 S.3     1  UNL1       -0.0516
     27 C          65.9702   92.7598   12.4909 C.2     1  UNL1        0.1622
     28 N          66.9690   93.3884   13.4168 N.2     1  UNL1       -0.2526
@<TRIPOS>BOND
     1    19    20    1
     2    20    21    1
     3    20    22    1
     4    22    23    1
     5    23    24    1
     6    24    18    1
     7    18    17    1
     8    17     1    1
     9     1     2    2
    10     2     3    1
    11     3     4    1
    12     4     5    1
    13     5     6    1
    14     6     7    1
    15     7     8    1
    16     1     9    1
    17     9    11    1
    18    11    12    1
    19    12    13    1
    20    13    14    1
    21    14    15    1
    22    15    16    1
    23    24    25    2
    24    25    26    1
    25    26    27    1
    26    27    28    2
    27    28    20    1
    28    27    23    1
    29     8     3    1
    30    16    11    1
    31     9    10    1
@<TRIPOS>MOLECULE
*****
 28 31 0 0 0
SMALL
GASTEIGER

@<TRIPOS>ATOM
      1 C          63.7595   89.2117   14.7409 C.2     1  UNL1        0.1514
      2 N          63.8657   88.2355   15.8749 N.2     1  UNL1       -0.2531
      3 C          63.8004   86.7616   15.6043 C.3     1  UNL1        0.1051
      4 C          64.8332   86.1130   14.7310 C.3     1  UNL1        0.0244
      5 C          64.7680   84.6391   14.4603 C.3     1  UNL1        0.0020
      6 C          63.6700   83.8137   15.0630 C.3     1  UNL1        0.0001
      7 C          62.6372   84.4624   15.9363 C.3     1  UNL1        0.0020
      8 C          62.7024   85.9363   16.2070 C.3     1  UNL1        0.0244
      9 N          63.8248   90.6856   15.0116 N.pl3   1  UNL1       -0.3151
     10 H          62.9982   91.1911   15.1864 H       1  UNL1        0.1486
     11 C          65.1494   91.3895   15.0159 C.3     1  UNL1        0.0708
     12 C          66.0699   91.2626   13.8384 C.3     1  UNL1        0.0195
     13 C          67.3945   91.9665   13.8427 C.3     1  UNL1        0.0017
     14 C          67.7986   92.7971   15.0245 C.3     1  UNL1        0.0001
     15 C          66.8781   92.9240   16.2020 C.3     1  UNL1        0.0017
     16 C          65.5534   92.2202   16.1977 C.3     1  UNL1        0.0195
     17 S          63.5879   88.7140   13.3364 S.3     1  UNL1       -0.0744
     18 C          63.3388   89.6859   12.2214 C.3     1  UNL1        0.1066
     19 C          62.3369   85.6169    8.5682 C.3     1  UNL1        0.0262
     20 C          61.3399   86.7156    8.7895 C.3     1  UNL1        0.1051
     21 C          60.5379   85.9820    7.7558 C.3     1  UNL1        0.0262
     22 C          62.3503   87.2195    9.7769 C.3     1  UNL1        0.1194
     23 N          61.8102   88.4763   10.3924 N.pl3   1  UNL1       -0.2679
     24 C          62.1008   89.5645   11.3831 C.2     1  UNL1        0.0484
     25 C          60.9362   90.5097   11.3883 C.2     1  UNL1        0.0494
     26 S          59.9258   90.0058   10.4009 S.3     1  UNL1       -0.0516
     27 C          60.4659   88.7491    9.7854 C.2     1  UNL1        0.1622
     28 N          60.1753   87.6609    8.7947 N.2     1  UNL1       -0.2526
@<TRIPOS>BOND
     1    19    20    1
     2    20    21    1
     3    20    22    1
     4    22    23    1
     5    23    24    1
     6    24    18    1
     7    18    17    1
     8    17     1    1
     9     1     2    2
    10     2     3    1
    11     3     4    1
    12     4     5    1
    13     5     6    1
    14     6     7    1
    15     7     8    1
    16     1     9    1
    17     9    11    1
    18    11    12    1
    19    12    13    1
    20    13    14    1
    21    14    15    1
    22    15    16    1
    23    24    25    2
    24    25    26    1
    25    26    27    1
    26    27    28    2
    27    28    20    1
    28    27    23    1
    29     8     3    1
    30    16    11    1
    31     9    10    1
