@<TRIPOS>MOLECULE
*****
 29 31 0 0 0
SMALL
GASTEIGER

@<TRIPOS>ATOM
      1 C          64.0245   87.4066   15.0873 C.3     1  UNL1        0.0239
      2 C          64.1809   88.8886   14.9167 C.3     1  UNL1        0.0240
      3 C          63.4790   88.3426   16.1247 C.3     1  UNL1        0.0057
      4 C          63.1358   89.6227   16.8273 C.3     1  UNL1        0.0004
      5 C          62.8963   87.3521   17.0887 C.3     1  UNL1        0.0004
      6 C          64.6764   90.0596   14.1208 C.ar    1  UNL1       -0.0224
      7 C          63.9530   90.4803   12.8760 C.ar    1  UNL1       -0.0029
      8 C          64.4485   91.6512   12.0801 C.ar    1  UNL1        0.0196
      9 C          65.6674   92.4013   12.5290 C.ar    1  UNL1        0.1217
     10 C          66.3908   91.9806   13.7739 C.ar    1  UNL1        0.0196
     11 C          65.8953   90.8097   14.5697 C.ar    1  UNL1       -0.0029
     12 S          66.1628   93.5723   11.7331 S.O2    1  UNL1        0.0572
     13 N          66.6583   94.7431   10.9371 N.3     1  UNL1       -0.2035
     14 O          66.6041   94.2459   12.9986 O.2     1  UNL1       -0.1532
     15 O          65.7216   92.8987   10.4676 O.2     1  UNL1       -0.1532
     16 H          67.0535   95.4404   11.5681 H       1  UNL1        0.1442
     17 H          65.8822   95.1547   10.4188 H       1  UNL1        0.1442
     18 C          64.2492   86.0105   14.5869 C.3     1  UNL1        0.0874
     19 N          63.1197   85.2471   13.9615 N.pl3   1  UNL1       -0.3302
     20 H          62.3580   84.9551   14.5128 H       1  UNL1        0.1469
     21 C          63.8298   83.6810   12.0139 C.ar    1  UNL1        0.1517
     22 C          63.8606   83.3624   10.5485 C.ar    1  UNL1        0.0390
     23 C          63.2121   84.2911    9.5652 C.ar    1  UNL1        0.0146
     24 C          62.5328   85.5385   10.0473 C.ar    1  UNL1        0.0591
     25 CL         61.8843   86.4673    9.0640 Cl      1  UNL1       -0.0822
     26 C          62.5020   85.8571   11.5127 C.ar    1  UNL1        0.0288
     27 C          63.1505   84.9284   12.4960 C.ar    1  UNL1        0.0799
     28 C          63.7066   81.5937   13.5560 C.3     1  UNL1        0.2525
     29 O          64.4783   82.7522   12.9971 O.3     1  UNL1       -0.4702
@<TRIPOS>BOND
     1    28    29    1
     2    29    21    1
     3    21    22   ar
     4    22    23   ar
     5    23    24   ar
     6    24    25    1
     7    24    26   ar
     8    26    27   ar
     9    27    19    1
    10    19    18    1
    11    18     1    1
    12     1     2    1
    13     2     6    1
    14     6     7   ar
    15     7     8   ar
    16     8     9   ar
    17     9    12    1
    18    12    13    1
    19    12    14    2
    20    12    15    2
    21     9    10   ar
    22    10    11   ar
    23     2     3    1
    24     3     4    1
    25     3     5    1
    26    27    21   ar
    27     3     1    1
    28    11     6   ar
    29    19    20    1
    30    13    16    1
    31    13    17    1
@<TRIPOS>MOLECULE
*****
 29 31 0 0 0
SMALL
GASTEIGER

@<TRIPOS>ATOM
      1 C          64.0718   87.8396   15.1085 C.3     1  UNL1        0.0239
      2 C          64.2620   89.3064   14.8588 C.3     1  UNL1        0.0240
      3 C          63.5404   88.8425   16.0893 C.3     1  UNL1        0.0057
      4 C          63.2212   90.1661   16.7186 C.3     1  UNL1        0.0004
      5 C          62.9297   87.9188   17.1012 C.3     1  UNL1        0.0004
      6 C          64.7885   90.4211   14.0042 C.ar    1  UNL1       -0.0224
      7 C          64.0851   90.7861   12.7306 C.ar    1  UNL1       -0.0029
      8 C          64.6116   91.9008   11.8761 C.ar    1  UNL1        0.0196
      9 C          65.8414   92.6504   12.2951 C.ar    1  UNL1        0.1217
     10 C          66.5448   92.2854   13.5687 C.ar    1  UNL1        0.0196
     11 C          66.0183   91.1707   14.4232 C.ar    1  UNL1       -0.0029
     12 S          66.3679   93.7652   11.4405 S.O2    1  UNL1        0.0572
     13 N          66.8943   94.8798   10.5859 N.3     1  UNL1       -0.2035
     14 O          66.2218   94.7163   12.5911 O.2     1  UNL1       -0.1532
     15 O          66.5139   92.8140   10.2899 O.2     1  UNL1       -0.1532
     16 H          66.9199   95.7423   11.1298 H       1  UNL1        0.1442
     17 H          66.2848   95.0055    9.7777 H       1  UNL1        0.1442
     18 C          64.2687   86.4137   14.6865 C.3     1  UNL1        0.0874
     19 N          63.1425   85.4313   14.8145 N.pl3   1  UNL1       -0.3302
     20 H          62.4928   85.5202   15.5488 H       1  UNL1        0.1469
     21 C          62.7285   84.6186   12.3818 C.ar    1  UNL1        0.1517
     22 C          62.5923   83.5005   11.3912 C.ar    1  UNL1        0.0390
     23 C          62.7340   82.0771   11.8426 C.ar    1  UNL1        0.0146
     24 C          63.0118   81.7717   13.2846 C.ar    1  UNL1        0.0591
     25 CL         63.1534   80.3483   13.7360 Cl      1  UNL1       -0.0822
     26 C          63.1480   82.8898   14.2752 C.ar    1  UNL1        0.0288
     27 C          63.0063   84.3132   13.8238 C.ar    1  UNL1        0.0799
     28 C          61.4249   86.4443   11.0714 C.3     1  UNL1        0.2525
     29 O          62.5869   86.0420   11.9304 O.3     1  UNL1       -0.4702
@<TRIPOS>BOND
     1    28    29    1
     2    29    21    1
     3    21    22   ar
     4    22    23   ar
     5    23    24   ar
     6    24    25    1
     7    24    26   ar
     8    26    27   ar
     9    27    19    1
    10    19    18    1
    11    18     1    1
    12     1     2    1
    13     2     6    1
    14     6     7   ar
    15     7     8   ar
    16     8     9   ar
    17     9    12    1
    18    12    13    1
    19    12    14    2
    20    12    15    2
    21     9    10   ar
    22    10    11   ar
    23     2     3    1
    24     3     4    1
    25     3     5    1
    26    27    21   ar
    27     3     1    1
    28    11     6   ar
    29    19    20    1
    30    13    16    1
    31    13    17    1
@<TRIPOS>MOLECULE
*****
 29 31 0 0 0
SMALL
GASTEIGER

@<TRIPOS>ATOM
      1 C          62.0722   87.7167   11.1827 C.3     1  UNL1        0.0239
      2 C          62.4920   89.1225   11.4951 C.3     1  UNL1        0.0240
      3 C          61.2169   88.8693   10.7469 C.3     1  UNL1        0.0057
      4 C          60.7479   90.2800   10.5467 C.3     1  UNL1        0.0004
      5 C          60.1046   88.1263   10.0681 C.3     1  UNL1        0.0004
      6 C          63.4707   90.0803   12.1075 C.ar    1  UNL1       -0.0224
      7 C          63.9642   91.2558   11.3173 C.ar    1  UNL1       -0.0029
      8 C          64.9428   92.2136   11.9297 C.ar    1  UNL1        0.0196
      9 C          65.4278   91.9957   13.3323 C.ar    1  UNL1        0.1217
     10 C          64.9343   90.8202   14.1225 C.ar    1  UNL1        0.0196
     11 C          63.9558   89.8624   13.5101 C.ar    1  UNL1       -0.0029
     12 S          66.4065   92.9535   13.9447 S.O2    1  UNL1        0.0572
     13 N          67.3851   93.9113   14.5570 N.3     1  UNL1       -0.2035
     14 O          65.6891   92.8471   15.2577 O.2     1  UNL1       -0.1532
     15 O          67.1239   93.0599   12.6317 O.2     1  UNL1       -0.1532
     16 H          67.1470   94.0602   15.5376 H       1  UNL1        0.1442
     17 H          67.3473   94.8007   14.0591 H       1  UNL1        0.1442
     18 C          62.3236   86.2397   11.2540 C.3     1  UNL1        0.0874
     19 N          62.8596   85.6301   12.5153 N.pl3   1  UNL1       -0.3302
     20 H          63.2964   86.1988   13.1899 H       1  UNL1        0.1469
     21 C          62.3858   83.6382   14.1147 C.ar    1  UNL1        0.1517
     22 C          62.2563   82.1622   14.3483 C.ar    1  UNL1        0.0390
     23 C          62.4710   81.2021   13.2160 C.ar    1  UNL1        0.0146
     24 C          62.8152   81.7179   11.8503 C.ar    1  UNL1        0.0591
     25 CL         63.0299   80.7577   10.7180 Cl      1  UNL1       -0.0822
     26 C          62.9448   83.1939   11.6167 C.ar    1  UNL1        0.0288
     27 C          62.7301   84.1541   12.7490 C.ar    1  UNL1        0.0799
     28 C          63.3494   85.2015   15.9525 C.3     1  UNL1        0.2525
     29 O          62.1711   84.5984   15.2470 O.3     1  UNL1       -0.4702
@<TRIPOS>BOND
     1    28    29    1
     2    29    21    1
     3    21    22   ar
     4    22    23   ar
     5    23    24   ar
     6    24    25    1
     7    24    26   ar
     8    26    27   ar
     9    27    19    1
    10    19    18    1
    11    18     1    1
    12     1     2    1
    13     2     6    1
    14     6     7   ar
    15     7     8   ar
    16     8     9   ar
    17     9    12    1
    18    12    13    1
    19    12    14    2
    20    12    15    2
    21     9    10   ar
    22    10    11   ar
    23     2     3    1
    24     3     4    1
    25     3     5    1
    26    27    21   ar
    27     3     1    1
    28    11     6   ar
    29    19    20    1
    30    13    16    1
    31    13    17    1
@<TRIPOS>MOLECULE
*****
 29 31 0 0 0
SMALL
GASTEIGER

@<TRIPOS>ATOM
      1 C          64.1361   88.2338   14.7329 C.3     1  UNL1        0.0239
      2 C          64.3856   89.6985   14.5269 C.3     1  UNL1        0.0240
      3 C          63.6959   89.2229   15.7711 C.3     1  UNL1        0.0057
      4 C          63.4678   90.5355   16.4604 C.3     1  UNL1        0.0004
      5 C          63.0854   88.2914   16.7760 C.3     1  UNL1        0.0004
      6 C          64.9279   90.8187   13.6896 C.ar    1  UNL1       -0.0224
      7 C          66.1392   91.5772   14.1453 C.ar    1  UNL1       -0.0029
      8 C          66.6814   92.6974   13.3080 C.ar    1  UNL1        0.0196
      9 C          66.0124   93.0591   12.0151 C.ar    1  UNL1        0.1217
     10 C          64.8012   92.3007   11.5595 C.ar    1  UNL1        0.0196
     11 C          64.2590   91.1805   12.3967 C.ar    1  UNL1       -0.0029
     12 S          66.5547   94.1794   11.1778 S.O2    1  UNL1        0.0572
     13 N          67.0970   95.2997   10.3406 N.3     1  UNL1       -0.2035
     14 O          66.9260   93.1984   10.1056 O.2     1  UNL1       -0.1532
     15 O          66.1835   95.1604   12.2500 O.2     1  UNL1       -0.1532
     16 H          67.4579   94.9246    9.4634 H       1  UNL1        0.1442
     17 H          67.8496   95.7679   10.8454 H       1  UNL1        0.1442
     18 C          64.2461   86.8171   14.2524 C.3     1  UNL1        0.0874
     19 N          63.3033   86.3053   13.2040 N.pl3   1  UNL1       -0.3302
     20 H          62.7884   86.9387   12.6535 H       1  UNL1        0.1469
     21 C          62.4173   84.0004   14.0117 C.ar    1  UNL1        0.1517
     22 C          62.2589   82.5236   13.8021 C.ar    1  UNL1        0.0390
     23 C          62.8279   81.8749   12.5752 C.ar    1  UNL1        0.0146
     24 C          63.5554   82.7030   11.5579 C.ar    1  UNL1        0.0591
     25 CL         64.1245   82.0544   10.3309 Cl      1  UNL1       -0.0822
     26 C          63.7139   84.1798   11.7675 C.ar    1  UNL1        0.0288
     27 C          63.1448   84.8285   12.9944 C.ar    1  UNL1        0.0799
     28 C          62.6484   84.6866   16.5069 C.3     1  UNL1        0.2525
     29 O          61.8482   84.6491   15.2387 O.3     1  UNL1       -0.4702
@<TRIPOS>BOND
     1    28    29    1
     2    29    21    1
     3    21    22   ar
     4    22    23   ar
     5    23    24   ar
     6    24    25    1
     7    24    26   ar
     8    26    27   ar
     9    27    19    1
    10    19    18    1
    11    18     1    1
    12     1     2    1
    13     2     6    1
    14     6     7   ar
    15     7     8   ar
    16     8     9   ar
    17     9    12    1
    18    12    13    1
    19    12    14    2
    20    12    15    2
    21     9    10   ar
    22    10    11   ar
    23     2     3    1
    24     3     4    1
    25     3     5    1
    26    27    21   ar
    27     3     1    1
    28    11     6   ar
    29    19    20    1
    30    13    16    1
    31    13    17    1
@<TRIPOS>MOLECULE
*****
 29 31 0 0 0
SMALL
GASTEIGER

@<TRIPOS>ATOM
      1 C          61.8449   87.4281   10.0772 C.3     1  UNL1        0.0239
      2 C          62.1208   88.8328   10.5252 C.3     1  UNL1        0.0240
      3 C          60.8024   88.4913    9.8966 C.3     1  UNL1        0.0057
      4 C          60.1376   89.8353    9.9394 C.3     1  UNL1        0.0004
      5 C          59.7148   87.6831    9.2530 C.3     1  UNL1        0.0004
      6 C          63.0413   89.8410   11.1468 C.ar    1  UNL1       -0.0224
      7 C          63.5640   90.9842   10.3284 C.ar    1  UNL1       -0.0029
      8 C          64.4844   91.9924   10.9500 C.ar    1  UNL1        0.0196
      9 C          64.8822   91.8573   12.3899 C.ar    1  UNL1        0.1217
     10 C          64.3595   90.7141   13.2083 C.ar    1  UNL1        0.0196
     11 C          63.4390   89.7059   12.5867 C.ar    1  UNL1       -0.0029
     12 S          65.8027   92.8655   13.0115 S.O2    1  UNL1        0.0572
     13 N          66.7231   93.8736   13.6331 N.3     1  UNL1       -0.2035
     14 O          66.2578   93.2912   11.6471 O.2     1  UNL1       -0.1532
     15 O          65.3475   92.4398   14.3759 O.2     1  UNL1       -0.1532
     16 H          67.2235   94.3751   12.8993 H       1  UNL1        0.1442
     17 H          67.3929   93.3961   14.2362 H       1  UNL1        0.1442
     18 C          62.2875   86.0033    9.9229 C.3     1  UNL1        0.0874
     19 N          61.9127   84.9851   10.9587 N.pl3   1  UNL1       -0.3302
     20 H          61.0986   84.4434   10.8446 H       1  UNL1        0.1469
     21 C          63.1569   83.4086   12.6070 C.ar    1  UNL1        0.1517
     22 C          64.0225   83.2158   13.8168 C.ar    1  UNL1        0.0390
     23 C          64.5096   84.4066   14.5879 C.ar    1  UNL1        0.0146
     24 C          64.1312   85.7902   14.1494 C.ar    1  UNL1        0.0591
     25 CL         64.6183   86.9810   14.9206 Cl      1  UNL1       -0.0822
     26 C          63.2655   85.9830   12.9397 C.ar    1  UNL1        0.0288
     27 C          62.7784   84.7922   12.1685 C.ar    1  UNL1        0.0799
     28 C          62.7680   80.8457   12.4337 C.3     1  UNL1        0.2525
     29 O          62.6697   82.2179   11.8359 O.3     1  UNL1       -0.4702
@<TRIPOS>BOND
     1    28    29    1
     2    29    21    1
     3    21    22   ar
     4    22    23   ar
     5    23    24   ar
     6    24    25    1
     7    24    26   ar
     8    26    27   ar
     9    27    19    1
    10    19    18    1
    11    18     1    1
    12     1     2    1
    13     2     6    1
    14     6     7   ar
    15     7     8   ar
    16     8     9   ar
    17     9    12    1
    18    12    13    1
    19    12    14    2
    20    12    15    2
    21     9    10   ar
    22    10    11   ar
    23     2     3    1
    24     3     4    1
    25     3     5    1
    26    27    21   ar
    27     3     1    1
    28    11     6   ar
    29    19    20    1
    30    13    16    1
    31    13    17    1
@<TRIPOS>MOLECULE
*****
 29 31 0 0 0
SMALL
GASTEIGER

@<TRIPOS>ATOM
      1 C          61.0780   88.9638    9.5356 C.3     1  UNL1        0.0239
      2 C          61.3525   87.4892    9.5263 C.3     1  UNL1        0.0240
      3 C          60.3673   88.0749    8.5585 C.3     1  UNL1        0.0057
      4 C          59.9483   86.8326    7.8296 C.3     1  UNL1        0.0004
      5 C          59.5277   89.0920    7.8439 C.3     1  UNL1        0.0004
      6 C          62.0797   86.2996   10.0796 C.ar    1  UNL1       -0.0224
      7 C          62.0467   86.0189   11.5527 C.ar    1  UNL1       -0.0029
      8 C          62.7739   84.8293   12.1059 C.ar    1  UNL1        0.0196
      9 C          63.5342   83.9206   11.1861 C.ar    1  UNL1        0.1217
     10 C          63.5672   84.2013    9.7130 C.ar    1  UNL1        0.0196
     11 C          62.8400   85.3908    9.1597 C.ar    1  UNL1       -0.0029
     12 S          64.2614   82.7310   11.7394 S.O2    1  UNL1        0.0572
     13 N          64.9886   81.5415   12.2927 N.3     1  UNL1       -0.2035
     14 O          64.7453   82.3861   10.3621 O.2     1  UNL1       -0.1532
     15 O          63.7776   83.0759   13.1166 O.2     1  UNL1       -0.1532
     16 H          65.4637   81.0508   11.5351 H       1  UNL1        0.1442
     17 H          64.3213   80.9126   12.7394 H       1  UNL1        0.1442
     18 C          61.3298   90.3284   10.1051 C.3     1  UNL1        0.0874
     19 N          62.7157   90.9020   10.0933 N.pl3   1  UNL1       -0.3302
     20 H          63.0890   91.2703    9.2600 H       1  UNL1        0.1469
     21 C          64.5913   91.9592   11.5475 C.ar    1  UNL1        0.1517
     22 C          65.4085   91.9716   12.8053 C.ar    1  UNL1        0.0390
     23 C          65.1675   90.9393   13.8665 C.ar    1  UNL1        0.0146
     24 C          64.1092   89.8947   13.6701 C.ar    1  UNL1        0.0591
     25 CL         63.8682   88.8624   14.7314 Cl      1  UNL1       -0.0822
     26 C          63.2920   89.8822   12.4124 C.ar    1  UNL1        0.0288
     27 C          63.5330   90.9145   11.3511 C.ar    1  UNL1        0.0799
     28 C          66.2241   93.4842   10.2216 C.3     1  UNL1        0.2525
     29 O          64.8324   92.9914   10.4862 O.3     1  UNL1       -0.4702
@<TRIPOS>BOND
     1    28    29    1
     2    29    21    1
     3    21    22   ar
     4    22    23   ar
     5    23    24   ar
     6    24    25    1
     7    24    26   ar
     8    26    27   ar
     9    27    19    1
    10    19    18    1
    11    18     1    1
    12     1     2    1
    13     2     6    1
    14     6     7   ar
    15     7     8   ar
    16     8     9   ar
    17     9    12    1
    18    12    13    1
    19    12    14    2
    20    12    15    2
    21     9    10   ar
    22    10    11   ar
    23     2     3    1
    24     3     4    1
    25     3     5    1
    26    27    21   ar
    27     3     1    1
    28    11     6   ar
    29    19    20    1
    30    13    16    1
    31    13    17    1
@<TRIPOS>MOLECULE
*****
 29 31 0 0 0
SMALL
GASTEIGER

@<TRIPOS>ATOM
      1 C          61.0720   88.8841    9.6298 C.3     1  UNL1        0.0239
      2 C          61.3083   87.4029    9.6172 C.3     1  UNL1        0.0240
      3 C          60.3907   88.0246    8.6066 C.3     1  UNL1        0.0057
      4 C          59.9783   86.8016    7.8422 C.3     1  UNL1        0.0004
      5 C          59.6162   89.0711    7.8615 C.3     1  UNL1        0.0004
      6 C          61.9746   86.1887   10.1934 C.ar    1  UNL1       -0.0224
      7 C          62.7482   85.2634    9.3016 C.ar    1  UNL1       -0.0029
      8 C          63.4145   84.0493    9.8778 C.ar    1  UNL1        0.0196
      9 C          63.3070   83.7605   11.3458 C.ar    1  UNL1        0.1217
     10 C          62.5334   84.6857   12.2376 C.ar    1  UNL1        0.0196
     11 C          61.8672   85.8998   11.6614 C.ar    1  UNL1       -0.0029
     12 S          63.9733   82.5463   11.9220 S.O2    1  UNL1        0.0572
     13 N          64.6395   81.3322   12.4982 N.3     1  UNL1       -0.2035
     14 O          64.9864   82.5774   10.8163 O.2     1  UNL1       -0.1532
     15 O          62.9602   82.5152   13.0277 O.2     1  UNL1       -0.1532
     16 H          65.4400   81.0769   11.9199 H       1  UNL1        0.1442
     17 H          63.9754   80.5583   12.5203 H       1  UNL1        0.1442
     18 C          61.3290   90.2355   10.2278 C.3     1  UNL1        0.0874
     19 N          61.7177   90.3551   11.6717 N.pl3   1  UNL1       -0.3302
     20 H          61.0928   90.0658   12.3753 H       1  UNL1        0.1469
     21 C          63.5837   90.7415   13.4377 C.ar    1  UNL1        0.1517
     22 C          64.9245   91.3019   13.8094 C.ar    1  UNL1        0.0390
     23 C          65.7401   92.0363   12.7869 C.ar    1  UNL1        0.0146
     24 C          65.2149   92.2103   11.3927 C.ar    1  UNL1        0.0591
     25 CL         66.0305   92.9447   10.3702 Cl      1  UNL1       -0.0822
     26 C          63.8741   91.6499   11.0210 C.ar    1  UNL1        0.0288
     27 C          63.0585   90.9155   12.0435 C.ar    1  UNL1        0.0799
     28 C          63.3442   89.7225   15.8155 C.3     1  UNL1        0.2525
     29 O          62.7681   90.0071   14.4601 O.3     1  UNL1       -0.4702
@<TRIPOS>BOND
     1    28    29    1
     2    29    21    1
     3    21    22   ar
     4    22    23   ar
     5    23    24   ar
     6    24    25    1
     7    24    26   ar
     8    26    27   ar
     9    27    19    1
    10    19    18    1
    11    18     1    1
    12     1     2    1
    13     2     6    1
    14     6     7   ar
    15     7     8   ar
    16     8     9   ar
    17     9    12    1
    18    12    13    1
    19    12    14    2
    20    12    15    2
    21     9    10   ar
    22    10    11   ar
    23     2     3    1
    24     3     4    1
    25     3     5    1
    26    27    21   ar
    27     3     1    1
    28    11     6   ar
    29    19    20    1
    30    13    16    1
    31    13    17    1
@<TRIPOS>MOLECULE
*****
 29 31 0 0 0
SMALL
GASTEIGER

@<TRIPOS>ATOM
      1 C          63.8178   84.7712   13.1625 C.3     1  UNL1        0.0239
      2 C          62.9012   84.7915   11.9752 C.3     1  UNL1        0.0240
      3 C          63.3634   83.4826   12.5436 C.3     1  UNL1        0.0057
      4 C          62.6641   82.5342   11.6154 C.3     1  UNL1        0.0004
      5 C          64.0684   82.5030   13.4344 C.3     1  UNL1        0.0004
      6 C          62.1052   85.5590   10.9616 C.ar    1  UNL1       -0.0224
      7 C          61.1009   86.5780   11.4119 C.ar    1  UNL1       -0.0029
      8 C          60.3049   87.3454   10.3983 C.ar    1  UNL1        0.0196
      9 C          60.5132   87.0938    8.9343 C.ar    1  UNL1        0.1217
     10 C          61.5176   86.0747    8.4840 C.ar    1  UNL1        0.0196
     11 C          62.3135   85.3073    9.4976 C.ar    1  UNL1       -0.0029
     12 S          59.7172   87.8612    7.9207 S.O2    1  UNL1        0.0572
     13 N          58.9212   88.6287    6.9071 N.3     1  UNL1       -0.2035
     14 O          59.1417   86.5774    7.4006 O.2     1  UNL1       -0.1532
     15 O          60.2928   89.1450    8.4407 O.2     1  UNL1       -0.1532
     16 H          58.3718   87.9795    6.3439 H       1  UNL1        0.1442
     17 H          59.5547   89.1515    6.3023 H       1  UNL1        0.1442
     18 C          64.6093   85.5034   14.2052 C.3     1  UNL1        0.0874
     19 N          63.9023   86.2236   15.3150 N.pl3   1  UNL1       -0.3302
     20 H          63.4955   85.7134   16.0522 H       1  UNL1        0.1469
     21 C          63.3807   88.4581   16.5335 C.ar    1  UNL1        0.1517
     22 C          63.2937   89.9555   16.5200 C.ar    1  UNL1        0.0390
     23 C          63.6414   90.7158   15.2746 C.ar    1  UNL1        0.0146
     24 C          64.0761   89.9787   14.0427 C.ar    1  UNL1        0.0591
     25 CL         64.4238   90.7391   12.7973 Cl      1  UNL1       -0.0822
     26 C          64.1630   88.4814   14.0562 C.ar    1  UNL1        0.0288
     27 C          63.8154   87.7211   15.3016 C.ar    1  UNL1        0.0799
     28 C          62.2009   86.4530   17.6900 C.3     1  UNL1        0.2525
     29 O          63.0330   87.6978   17.7789 O.3     1  UNL1       -0.4702
@<TRIPOS>BOND
     1    28    29    1
     2    29    21    1
     3    21    22   ar
     4    22    23   ar
     5    23    24   ar
     6    24    25    1
     7    24    26   ar
     8    26    27   ar
     9    27    19    1
    10    19    18    1
    11    18     1    1
    12     1     2    1
    13     2     6    1
    14     6     7   ar
    15     7     8   ar
    16     8     9   ar
    17     9    12    1
    18    12    13    1
    19    12    14    2
    20    12    15    2
    21     9    10   ar
    22    10    11   ar
    23     2     3    1
    24     3     4    1
    25     3     5    1
    26    27    21   ar
    27     3     1    1
    28    11     6   ar
    29    19    20    1
    30    13    16    1
    31    13    17    1
@<TRIPOS>MOLECULE
*****
 29 31 0 0 0
SMALL
GASTEIGER

@<TRIPOS>ATOM
      1 C          64.1727   89.0268   13.7396 C.3     1  UNL1        0.0239
      2 C          63.3699   89.3016   12.5026 C.3     1  UNL1        0.0240
      3 C          64.1792   90.3975   13.1302 C.3     1  UNL1        0.0057
      4 C          63.8671   91.5233   12.1894 C.3     1  UNL1        0.0004
      5 C          65.0970   91.1024   14.0846 C.3     1  UNL1        0.0004
      6 C          62.4391   88.8275   11.4260 C.ar    1  UNL1       -0.0224
      7 C          62.2669   87.3584   11.1768 C.ar    1  UNL1       -0.0029
      8 C          61.3361   86.8844   10.1003 C.ar    1  UNL1        0.0196
      9 C          60.5775   87.8795    9.2730 C.ar    1  UNL1        0.1217
     10 C          60.7497   89.3485    9.5222 C.ar    1  UNL1        0.0196
     11 C          61.6805   89.8225   10.5987 C.ar    1  UNL1       -0.0029
     12 S          59.6467   87.4054    8.1965 S.O2    1  UNL1        0.0572
     13 N          58.7160   86.9313    7.1199 N.3     1  UNL1       -0.2035
     14 O          59.9994   85.9833    8.5177 O.2     1  UNL1       -0.1532
     15 O          59.2940   88.8274    7.8752 O.2     1  UNL1       -0.1532
     16 H          58.7311   85.9122    7.0819 H       1  UNL1        0.1442
     17 H          59.0149   87.3096    6.2211 H       1  UNL1        0.1442
     18 C          64.6323   88.0769   14.8055 C.3     1  UNL1        0.0874
     19 N          63.6404   87.1911   15.4992 N.pl3   1  UNL1       -0.3302
     20 H          63.1098   87.5406   16.2513 H       1  UNL1        0.1469
     21 C          62.6372   84.8233   15.8699 C.ar    1  UNL1        0.1517
     22 C          62.4536   83.4049   15.4178 C.ar    1  UNL1        0.0390
     23 C          63.0895   82.9359   14.1428 C.ar    1  UNL1        0.0146
     24 C          63.9090   83.8852   13.3200 C.ar    1  UNL1        0.0591
     25 CL         64.5450   83.4162   12.0450 Cl      1  UNL1       -0.0822
     26 C          64.0927   85.3036   13.7721 C.ar    1  UNL1        0.0288
     27 C          63.4567   85.7726   15.0471 C.ar    1  UNL1        0.0799
     28 C          62.6605   86.3637   17.9620 C.3     1  UNL1        0.2525
     29 O          62.0013   85.2923   17.1449 O.3     1  UNL1       -0.4702
@<TRIPOS>BOND
     1    28    29    1
     2    29    21    1
     3    21    22   ar
     4    22    23   ar
     5    23    24   ar
     6    24    25    1
     7    24    26   ar
     8    26    27   ar
     9    27    19    1
    10    19    18    1
    11    18     1    1
    12     1     2    1
    13     2     6    1
    14     6     7   ar
    15     7     8   ar
    16     8     9   ar
    17     9    12    1
    18    12    13    1
    19    12    14    2
    20    12    15    2
    21     9    10   ar
    22    10    11   ar
    23     2     3    1
    24     3     4    1
    25     3     5    1
    26    27    21   ar
    27     3     1    1
    28    11     6   ar
    29    19    20    1
    30    13    16    1
    31    13    17    1
