@<TRIPOS>MOLECULE
*****
 49 55 0 0 0
SMALL
GASTEIGER

@<TRIPOS>ATOM
      1 C          60.7136   87.9232    8.9930 C.3     1  UNL1        0.1543
      2 N          60.8680   88.8064    7.7905 N.am    1  UNL1       -0.2822
      3 C          59.6554   89.3889    7.1271 C.2     1  UNL1        0.3043
      4 O          58.2883   89.0883    7.6662 O.2     1  UNL1       -0.2526
      5 N          59.8098   90.2721    5.9246 N.am    1  UNL1       -0.2641
      6 C          58.5971   90.8547    5.2612 C.3     1  UNL1        0.0966
      7 C          58.7516   91.7379    4.0586 C.3     1  UNL1        0.0415
      8 C          60.1187   92.0386    3.5195 C.3     1  UNL1        0.0806
      9 C          61.3313   91.4560    4.1829 C.3     1  UNL1        0.0415
     10 C          61.1769   90.5728    5.3855 C.3     1  UNL1        0.0966
     11 H          61.7653   89.0037    7.4367 H       1  UNL1        0.1514
     12 N          60.2731   92.9218    2.3170 N.am    1  UNL1       -0.2613
     13 C          59.0743   93.2769    1.4884 C.3     1  UNL1        0.1229
     14 C          59.2288   94.1601    0.2858 C.ar    1  UNL1        0.0135
     15 C          58.0299   94.5153   -0.5429 C.ar    1  UNL1       -0.0012
     16 C          58.1843   95.3985   -1.7454 C.ar    1  UNL1        0.0021
     17 C          59.5376   95.9266   -2.1193 C.ar    1  UNL1        0.0309
     18 C          60.7365   95.5714   -1.2906 C.ar    1  UNL1        0.1532
     19 F          62.0897   96.0995   -1.6645 F       1  UNL1       -0.2029
     20 C          60.5820   94.6882   -0.0881 C.ar    1  UNL1        0.0768
     21 N          61.7808   94.3331    0.7406 N.am    1  UNL1       -0.2665
     22 C          61.6264   93.4499    1.9431 C.2     1  UNL1        0.3079
     23 O          62.8252   93.0947    2.7718 O.2     1  UNL1       -0.2522
     24 H          62.6690   94.6797    0.4952 H       1  UNL1        0.1565
     25 C          60.4569   88.5294   10.3409 C.2     1  UNL1        0.2439
     26 O          59.1397   88.3090   11.0238 O.2     1  UNL1       -0.2731
     27 N          61.5174   89.3560   11.0057 N.am    1  UNL1       -0.2781
     28 C          62.8345   89.5764   10.3228 C.3     1  UNL1        0.0948
     29 C          63.8951   90.4031   10.9876 C.3     1  UNL1        0.0375
     30 C          63.6384   91.0093   12.3354 C.3     1  UNL1        0.0609
     31 C          62.3211   90.7889   13.0184 C.3     1  UNL1        0.0375
     32 C          61.2607   89.9623   12.3535 C.3     1  UNL1        0.0948
     33 N          64.6988   91.8359   13.0003 N.3     1  UNL1       -0.2738
     34 C          65.0516   91.5887   14.4371 C.3     1  UNL1        0.0720
     35 C          66.1121   92.4153   15.1020 C.3     1  UNL1        0.0174
     36 C          66.8198   93.4892   14.3301 C.3     1  UNL1        0.0029
     37 C          66.4670   93.7365   12.8932 C.3     1  UNL1        0.0174
     38 C          65.4066   92.9098   12.2284 C.3     1  UNL1        0.0720
     39 C          60.8159   86.4337    8.8478 C.3     1  UNL1        0.0553
     40 C          64.5377   82.8957    9.6417 C.3     1  UNL1        0.0287
     41 C          63.5414   83.8771   10.1840 C.2     1  UNL1       -0.0163
     42 C          62.6768   84.6647    9.2447 C.2     1  UNL1       -0.0105
     43 C          61.6805   85.6462    9.7870 C.2     1  UNL1       -0.0208
     44 C          61.5487   85.8400   11.2686 C.2     1  UNL1       -0.0046
     45 C          62.4133   85.0525   12.2079 C.2     1  UNL1        0.0261
     46 C          62.5079   85.0298   13.7047 C.2     1  UNL1        0.1197
     47 N          63.5626   84.0343   14.0876 N.2     1  UNL1       -0.1508
     48 N          64.1199   83.4418   12.8273 N.2     1  UNL1       -0.1677
     49 C          63.4097   84.0710   11.6656 C.3     1  UNL1        0.1672
@<TRIPOS>BOND
     1    40    41    1
     2    41    42    2
     3    42    43    1
     4    43    39    1
     5     1    39    1
     6     1     2    1
     7     2     3   am
     8     3     4    2
     9     3     5   am
    10     5     6    1
    11     6     7    1
    12     7     8    1
    13     8    12    1
    14    12    13    1
    15    13    14    1
    16    14    15   ar
    17    15    16   ar
    18    16    17   ar
    19    17    18   ar
    20    18    19    1
    21    18    20   ar
    22    20    21    1
    23    21    22   am
    24    22    23    2
    25     8     9    1
    26     9    10    1
    27     1    25    1
    28    25    26    2
    29    25    27   am
    30    27    28    1
    31    28    29    1
    32    29    30    1
    33    30    33    1
    34    33    34    1
    35    34    35    1
    36    35    36    1
    37    36    37    1
    38    37    38    1
    39    30    31    1
    40    31    32    1
    41    43    44    2
    42    44    45    1
    43    45    46    2
    44    46    47    1
    45    47    48    2
    46    48    49    1
    47    49    41    1
    48    10     5    1
    49    32    27    1
    50    49    45    1
    51    22    12   am
    52    38    33    1
    53    20    14   ar
    54     2    11    1
    55    21    24    1
@<TRIPOS>MOLECULE
*****
 49 55 0 0 0
SMALL
GASTEIGER

@<TRIPOS>ATOM
      1 C          59.5569   89.1740    7.3749 C.3     1  UNL1        0.1543
      2 N          60.6815   89.7579    8.1775 N.am    1  UNL1       -0.2822
      3 C          60.6467   89.6925    9.6757 C.2     1  UNL1        0.3043
      4 O          59.4872   89.0430   10.3712 O.2     1  UNL1       -0.2526
      5 N          61.7713   90.2764   10.4782 N.am    1  UNL1       -0.2641
      6 C          61.7365   90.2110   11.9764 C.3     1  UNL1        0.0966
      7 C          62.8612   90.7950   12.7790 C.3     1  UNL1        0.0415
      8 C          64.0206   91.4444   12.0834 C.3     1  UNL1        0.0806
      9 C          64.0554   91.5098   10.5852 C.3     1  UNL1        0.0415
     10 C          62.9308   90.9259    9.7827 C.3     1  UNL1        0.0966
     11 H          61.4425   90.1842    7.7210 H       1  UNL1        0.1514
     12 N          65.1452   92.0283   12.8860 N.am    1  UNL1       -0.2613
     13 C          65.7233   91.2596   14.0371 C.3     1  UNL1        0.1229
     14 C          66.8479   91.8437   14.8397 C.ar    1  UNL1        0.0135
     15 C          67.4260   91.0750   15.9907 C.ar    1  UNL1       -0.0012
     16 C          68.5506   91.6589   16.7933 C.ar    1  UNL1        0.0021
     17 C          69.0972   93.0117   16.4448 C.ar    1  UNL1        0.0309
     18 C          68.5192   93.7804   15.2938 C.ar    1  UNL1        0.1532
     19 F          69.0658   95.1330   14.9453 F       1  UNL1       -0.2029
     20 C          67.3945   93.1963   14.4912 C.ar    1  UNL1        0.0768
     21 N          66.8165   93.9651   13.3401 N.am    1  UNL1       -0.2665
     22 C          65.6919   93.3811   12.5375 C.2     1  UNL1        0.3079
     23 O          65.1138   94.1498   11.3865 O.2     1  UNL1       -0.2522
     24 H          67.1752   94.8529   13.1114 H       1  UNL1        0.1565
     25 C          58.7700   90.0456    6.4416 C.2     1  UNL1        0.2439
     26 O          57.2797   90.1423    6.5830 O.2     1  UNL1       -0.2731
     27 N          59.4732   90.8206    5.3670 N.am    1  UNL1       -0.2781
     28 C          60.9634   90.7239    5.2257 C.3     1  UNL1        0.0948
     29 C          61.6667   91.4989    4.1510 C.3     1  UNL1        0.0375
     30 C          60.8798   92.3706    3.2178 C.3     1  UNL1        0.0609
     31 C          59.3895   92.4672    3.3592 C.3     1  UNL1        0.0375
     32 C          58.6863   91.6922    4.4338 C.3     1  UNL1        0.0948
     33 N          61.5830   93.1456    2.1432 N.3     1  UNL1       -0.2738
     34 C          60.8356   94.1771    1.3512 C.3     1  UNL1        0.0720
     35 C          61.5388   94.9521    0.2765 C.3     1  UNL1        0.0174
     36 C          62.9895   94.6956   -0.0061 C.3     1  UNL1        0.0029
     37 C          63.7369   93.6640    0.7860 C.3     1  UNL1        0.0174
     38 C          63.0336   92.8890    1.8606 C.3     1  UNL1        0.0720
     39 C          59.2192   87.7183    7.5056 C.3     1  UNL1        0.0553
     40 C          62.6882   84.1290    6.0623 C.3     1  UNL1        0.0287
     41 C          62.0238   84.9344    7.1393 C.2     1  UNL1       -0.0163
     42 C          60.9537   85.9237    6.7839 C.2     1  UNL1       -0.0105
     43 C          60.2892   86.7290    7.8609 C.2     1  UNL1       -0.0208
     44 C          60.6949   86.5451    9.2933 C.2     1  UNL1       -0.0046
     45 C          61.7650   85.5559    9.6486 C.2     1  UNL1        0.0261
     46 C          62.3700   85.1606   10.9631 C.2     1  UNL1        0.1197
     47 N          63.4084   84.1109   10.6985 N.2     1  UNL1       -0.1508
     48 N          63.4451   83.8575    9.2205 N.2     1  UNL1       -0.1677
     49 C          62.4294   84.7505    8.5717 C.3     1  UNL1        0.1672
@<TRIPOS>BOND
     1    40    41    1
     2    41    42    2
     3    42    43    1
     4    43    39    1
     5     1    39    1
     6     1     2    1
     7     2     3   am
     8     3     4    2
     9     3     5   am
    10     5     6    1
    11     6     7    1
    12     7     8    1
    13     8    12    1
    14    12    13    1
    15    13    14    1
    16    14    15   ar
    17    15    16   ar
    18    16    17   ar
    19    17    18   ar
    20    18    19    1
    21    18    20   ar
    22    20    21    1
    23    21    22   am
    24    22    23    2
    25     8     9    1
    26     9    10    1
    27     1    25    1
    28    25    26    2
    29    25    27   am
    30    27    28    1
    31    28    29    1
    32    29    30    1
    33    30    33    1
    34    33    34    1
    35    34    35    1
    36    35    36    1
    37    36    37    1
    38    37    38    1
    39    30    31    1
    40    31    32    1
    41    43    44    2
    42    44    45    1
    43    45    46    2
    44    46    47    1
    45    47    48    2
    46    48    49    1
    47    49    41    1
    48    10     5    1
    49    32    27    1
    50    49    45    1
    51    22    12   am
    52    38    33    1
    53    20    14   ar
    54     2    11    1
    55    21    24    1
@<TRIPOS>MOLECULE
*****
 49 55 0 0 0
SMALL
GASTEIGER

@<TRIPOS>ATOM
      1 C          60.0462   89.1297    8.4350 C.3     1  UNL1        0.1543
      2 N          60.4988   89.8089    7.1765 N.am    1  UNL1       -0.2822
      3 C          59.4951   90.4666    6.2765 C.2     1  UNL1        0.3043
      4 O          58.0388   90.4451    6.6349 O.2     1  UNL1       -0.2526
      5 N          59.9478   91.1459    5.0181 N.am    1  UNL1       -0.2641
      6 C          58.9441   91.8036    4.1181 C.3     1  UNL1        0.0966
      7 C          59.3968   92.4828    2.8596 C.3     1  UNL1        0.0415
      8 C          60.8532   92.5044    2.5012 C.3     1  UNL1        0.0806
      9 C          61.8569   91.8467    3.4012 C.3     1  UNL1        0.0415
     10 C          61.4042   91.1675    4.6596 C.3     1  UNL1        0.0966
     11 H          61.4547   89.8231    6.9413 H       1  UNL1        0.1514
     12 N          61.3058   93.1837    1.2428 N.am    1  UNL1       -0.2613
     13 C          60.4705   93.0942    0.0001 C.3     1  UNL1        0.1229
     14 C          60.9233   93.7735   -1.2584 C.ar    1  UNL1        0.0135
     15 C          60.0880   93.6841   -2.5011 C.ar    1  UNL1       -0.0012
     16 C          60.5406   94.3634   -3.7595 C.ar    1  UNL1        0.0021
     17 C          61.8286   95.1321   -3.7753 C.ar    1  UNL1        0.0309
     18 C          62.6639   95.2215   -2.5326 C.ar    1  UNL1        0.1532
     19 F          63.9518   95.9902   -2.5483 F       1  UNL1       -0.2029
     20 C          62.2112   94.5422   -1.2741 C.ar    1  UNL1        0.0768
     21 N          63.0465   94.6317   -0.0314 N.am    1  UNL1       -0.2665
     22 C          62.5938   93.9524    1.2270 C.2     1  UNL1        0.3079
     23 O          63.4291   94.0419    2.4697 O.2     1  UNL1       -0.2522
     24 H          63.8918   95.1362   -0.0417 H       1  UNL1        0.1565
     25 C          59.9689   89.9025    9.7182 C.2     1  UNL1        0.2439
     26 O          58.6342   90.3047   10.2722 O.2     1  UNL1       -0.2731
     27 N          61.2261   90.2730   10.4475 N.am    1  UNL1       -0.2781
     28 C          62.5607   89.8707    9.8935 C.3     1  UNL1        0.0948
     29 C          63.8181   90.2412   10.6228 C.3     1  UNL1        0.0375
     30 C          63.7408   91.0140   11.9061 C.3     1  UNL1        0.0609
     31 C          62.4061   91.4163   12.4601 C.3     1  UNL1        0.0375
     32 C          61.1488   91.0458   11.7308 C.3     1  UNL1        0.0948
     33 N          64.9981   91.3845   12.6354 N.3     1  UNL1       -0.2738
     34 C          66.0105   92.2760   11.9796 C.3     1  UNL1        0.0720
     35 C          67.2679   92.6465   12.7089 C.3     1  UNL1        0.0174
     36 C          67.5127   92.1256   14.0940 C.3     1  UNL1        0.0029
     37 C          66.5002   91.2341   14.7499 C.3     1  UNL1        0.0174
     38 C          65.2429   90.8636   14.0206 C.3     1  UNL1        0.0720
     39 C          59.6708   87.6776    8.4101 C.3     1  UNL1        0.0553
     40 C          62.9824   84.1798    6.4610 C.3     1  UNL1        0.0287
     41 C          62.3777   84.8787    7.6425 C.2     1  UNL1       -0.0163
     42 C          61.3266   85.9287    7.4355 C.2     1  UNL1       -0.0105
     43 C          60.7219   86.6276    8.6170 C.2     1  UNL1       -0.0208
     44 C          61.1682   86.2765   10.0054 C.2     1  UNL1       -0.0046
     45 C          62.2193   85.2265   10.2123 C.2     1  UNL1        0.0261
     46 C          62.8546   84.6731   11.4533 C.2     1  UNL1        0.1197
     47 N          63.8520   83.6322   11.0389 N.2     1  UNL1       -0.1508
     48 N          63.8331   83.5423    9.5417 N.2     1  UNL1       -0.1677
     49 C          62.8240   84.5276    9.0308 C.3     1  UNL1        0.1672
@<TRIPOS>BOND
     1    40    41    1
     2    41    42    2
     3    42    43    1
     4    43    39    1
     5     1    39    1
     6     1     2    1
     7     2     3   am
     8     3     4    2
     9     3     5   am
    10     5     6    1
    11     6     7    1
    12     7     8    1
    13     8    12    1
    14    12    13    1
    15    13    14    1
    16    14    15   ar
    17    15    16   ar
    18    16    17   ar
    19    17    18   ar
    20    18    19    1
    21    18    20   ar
    22    20    21    1
    23    21    22   am
    24    22    23    2
    25     8     9    1
    26     9    10    1
    27     1    25    1
    28    25    26    2
    29    25    27   am
    30    27    28    1
    31    28    29    1
    32    29    30    1
    33    30    33    1
    34    33    34    1
    35    34    35    1
    36    35    36    1
    37    36    37    1
    38    37    38    1
    39    30    31    1
    40    31    32    1
    41    43    44    2
    42    44    45    1
    43    45    46    2
    44    46    47    1
    45    47    48    2
    46    48    49    1
    47    49    41    1
    48    10     5    1
    49    32    27    1
    50    49    45    1
    51    22    12   am
    52    38    33    1
    53    20    14   ar
    54     2    11    1
    55    21    24    1
@<TRIPOS>MOLECULE
*****
 49 55 0 0 0
SMALL
GASTEIGER

@<TRIPOS>ATOM
      1 C          60.6431   88.1808    8.6128 C.3     1  UNL1        0.1543
      2 N          60.8436   89.0749    7.4252 N.am    1  UNL1       -0.2822
      3 C          59.6605   89.7087    6.7554 C.2     1  UNL1        0.3043
      4 O          58.2770   89.4484    7.2732 O.2     1  UNL1       -0.2526
      5 N          59.8609   90.6028    5.5679 N.am    1  UNL1       -0.2641
      6 C          58.6778   91.2366    4.8980 C.3     1  UNL1        0.0966
      7 C          58.8783   92.1307    3.7104 C.3     1  UNL1        0.0415
      8 C          60.2618   92.3910    3.1926 C.3     1  UNL1        0.0806
      9 C          61.4449   91.7572    3.8624 C.3     1  UNL1        0.0415
     10 C          61.2445   90.8631    5.0500 C.3     1  UNL1        0.0966
     11 H          61.7516   89.2457    7.0854 H       1  UNL1        0.1514
     12 N          60.4623   93.2851    2.0050 N.am    1  UNL1       -0.2613
     13 C          61.6684   94.1737    1.9303 C.3     1  UNL1        0.1229
     14 C          61.8688   95.0678    0.7426 C.ar    1  UNL1        0.0135
     15 C          63.0749   95.9564    0.6679 C.ar    1  UNL1       -0.0012
     16 C          63.2753   96.8505   -0.5197 C.ar    1  UNL1        0.0021
     17 C          62.2696   96.8560   -1.6326 C.ar    1  UNL1        0.0309
     18 C          61.0635   95.9674   -1.5579 C.ar    1  UNL1        0.1532
     19 F          60.0578   95.9728   -2.6707 F       1  UNL1       -0.2029
     20 C          60.8631   95.0732   -0.3702 C.ar    1  UNL1        0.0768
     21 N          59.6570   94.1846   -0.2955 N.am    1  UNL1       -0.2665
     22 C          59.4565   93.2905    0.8921 C.2     1  UNL1        0.3079
     23 O          58.2504   92.4019    0.9668 O.2     1  UNL1       -0.2522
     24 H          58.9969   94.1882   -1.0259 H       1  UNL1        0.1565
     25 C          60.3461   88.7753    9.9576 C.2     1  UNL1        0.2439
     26 O          58.9815   88.6211   10.5610 O.2     1  UNL1       -0.2731
     27 N          61.4137   89.5240   10.6989 N.am    1  UNL1       -0.2781
     28 C          62.7783   89.6782   10.0956 C.3     1  UNL1        0.0948
     29 C          63.8460   90.4269   10.8369 C.3     1  UNL1        0.0375
     30 C          63.5490   91.0214   12.1817 C.3     1  UNL1        0.0609
     31 C          62.1843   90.8672   12.7851 C.3     1  UNL1        0.0375
     32 C          61.1167   90.1185   12.0437 C.3     1  UNL1        0.0948
     33 N          64.6166   91.7701   12.9230 N.3     1  UNL1       -0.2738
     34 C          65.3656   92.8778   12.2433 C.3     1  UNL1        0.0720
     35 C          66.4332   93.6265   12.9846 C.3     1  UNL1        0.0174
     36 C          66.7518   93.2676   14.4058 C.3     1  UNL1        0.0029
     37 C          66.0028   92.1599   15.0856 C.3     1  UNL1        0.0174
     38 C          64.9352   91.4112   14.3442 C.3     1  UNL1        0.0720
     39 C          60.7397   86.6921    8.4557 C.3     1  UNL1        0.0553
     40 C          64.3772   83.0938    9.3613 C.3     1  UNL1        0.0287
     41 C          63.3781   84.0885    9.8734 C.2     1  UNL1       -0.0163
     42 C          62.5585   84.8930    8.9085 C.2     1  UNL1       -0.0105
     43 C          61.5593   85.8877    9.4206 C.2     1  UNL1       -0.0208
     44 C          61.3799   86.0780   10.8976 C.2     1  UNL1       -0.0046
     45 C          62.1996   85.2736   11.8625 C.2     1  UNL1        0.0261
     46 C          62.2424   85.2438   13.3616 C.2     1  UNL1        0.1197
     47 N          63.2679   84.2307   13.7760 N.2     1  UNL1       -0.1508
     48 N          63.8589   83.6343   12.5330 N.2     1  UNL1       -0.1677
     49 C          63.1987   84.2789   11.3504 C.3     1  UNL1        0.1672
@<TRIPOS>BOND
     1    40    41    1
     2    41    42    2
     3    42    43    1
     4    43    39    1
     5     1    39    1
     6     1     2    1
     7     2     3   am
     8     3     4    2
     9     3     5   am
    10     5     6    1
    11     6     7    1
    12     7     8    1
    13     8    12    1
    14    12    13    1
    15    13    14    1
    16    14    15   ar
    17    15    16   ar
    18    16    17   ar
    19    17    18   ar
    20    18    19    1
    21    18    20   ar
    22    20    21    1
    23    21    22   am
    24    22    23    2
    25     8     9    1
    26     9    10    1
    27     1    25    1
    28    25    26    2
    29    25    27   am
    30    27    28    1
    31    28    29    1
    32    29    30    1
    33    30    33    1
    34    33    34    1
    35    34    35    1
    36    35    36    1
    37    36    37    1
    38    37    38    1
    39    30    31    1
    40    31    32    1
    41    43    44    2
    42    44    45    1
    43    45    46    2
    44    46    47    1
    45    47    48    2
    46    48    49    1
    47    49    41    1
    48    10     5    1
    49    32    27    1
    50    49    45    1
    51    22    12   am
    52    38    33    1
    53    20    14   ar
    54     2    11    1
    55    21    24    1
