@<TRIPOS>MOLECULE
*****
 36 40 0 0 0
SMALL
GASTEIGER

@<TRIPOS>ATOM
      1 O          58.2627   89.3636    6.6107 O.3     1  UNL1       -0.4535
      2 C          60.1874   92.2936    3.7893 C.ar    1  UNL1        0.0536
      3 C          58.7046   92.3307    4.0125 C.ar    1  UNL1        0.0076
      4 C          58.0630   91.3541    4.9529 C.ar    1  UNL1        0.0376
      5 C          58.9042   90.3403    5.6703 C.ar    1  UNL1        0.1453
      6 C          60.3872   90.3032    5.4471 C.ar    1  UNL1        0.0376
      7 C          61.0287   91.2799    4.5066 C.ar    1  UNL1        0.0076
      8 O          60.1351   94.5579    2.5164 O.2     1  UNL1       -0.2701
      9 C          60.8289   93.2703    2.8488 C.2     1  UNL1        0.2461
     10 N          62.1644   92.9593    2.2407 N.am    1  UNL1       -0.2956
     11 H          62.6198   92.1142    2.4589 H       1  UNL1        0.1501
     12 C          62.8060   93.9360    1.3001 C.3     1  UNL1        0.1361
     13 C          62.6223   93.7826   -0.1806 C.ar    1  UNL1        0.0821
     14 C          61.2418   93.6860   -0.7592 C.ar    1  UNL1        0.0371
     15 C          61.0581   93.5326   -2.2399 C.ar    1  UNL1        0.1019
     16 N          62.2551   93.4757   -3.1422 N.ar    1  UNL1       -0.2224
     17 C          63.6357   93.5723   -2.5637 C.ar    1  UNL1        0.1986
     18 N          63.8193   93.7257   -1.0829 N.ar    1  UNL1       -0.2266
     19 C          59.1047   88.6047    7.5932 C.ar    1  UNL1        0.1453
     20 C          59.8850   89.3431    8.6399 C.ar    1  UNL1        0.0381
     21 C          60.7270   88.5843    9.6224 C.ar    1  UNL1        0.0114
     22 C          60.7885   87.0869    9.5581 C.ar    1  UNL1        0.0419
     23 C          60.0082   86.3485    8.5114 C.ar    1  UNL1        0.0114
     24 C          59.1662   87.1074    7.5289 C.ar    1  UNL1        0.0381
     25 C          61.6305   86.3280   10.5405 C.1     1  UNL1       -0.0621
     26 C          62.4726   85.5693   11.5229 C.1     1  UNL1       -0.0597
     27 C          63.7619   84.0677   13.4067 C.3     1  UNL1        0.1561
     28 O          63.3842   86.3103   13.0522 O.3     1  UNL1       -0.3739
     29 C          63.3765   82.9914   12.6767 C.3     1  UNL1        0.1120
     30 N          63.1659   82.3088   12.2674 N.3     1  UNL1       -0.2699
     31 C          63.9679   82.1169   13.5204 C.3     1  UNL1        0.0723
     32 C          64.3940   83.3071   14.3276 C.3     1  UNL1        0.0207
     33 C          64.0182   84.6892   13.8819 C.3     1  UNL1        0.0404
     34 C          63.2163   84.8810   12.6290 C.3     1  UNL1        0.0207
     35 C          62.7901   83.6908   11.8217 C.3     1  UNL1        0.0723
     36 H          62.8654   86.4265   12.2408 H       1  UNL1        0.2115
@<TRIPOS>BOND
     1     8     9    2
     2     9    10   am
     3    10    12    1
     4    12    13    1
     5    13    14   ar
     6    14    15   ar
     7    15    16   ar
     8    16    17   ar
     9    17    18   ar
    10     9     2    1
    11     2     3   ar
    12     3     4   ar
    13     4     5   ar
    14     5     1    1
    15     1    19    1
    16    19    20   ar
    17    20    21   ar
    18    21    22   ar
    19    22    25    1
    20    25    26    3
    21    26    27    1
    22    27    28    1
    23    27    29    1
    24    29    30    1
    25    30    31    1
    26    31    32    1
    27    32    33    1
    28    33    34    1
    29    34    35    1
    30    22    23   ar
    31    23    24   ar
    32     5     6   ar
    33     6     7   ar
    34    18    13   ar
    35     7     2   ar
    36    24    19   ar
    37    33    27    1
    38    35    30    1
    39    10    11    1
    40    28    36    1
@<TRIPOS>MOLECULE
*****
 36 40 0 0 0
SMALL
GASTEIGER

@<TRIPOS>ATOM
      1 O          63.5907   89.4527   16.4467 O.3     1  UNL1       -0.4535
      2 C          63.3994   85.0652   15.4653 C.ar    1  UNL1        0.0536
      3 C          62.6560   85.6013   16.6527 C.ar    1  UNL1        0.0076
      4 C          62.7198   87.0637   16.9798 C.ar    1  UNL1        0.0376
      5 C          63.5269   87.9902   16.1196 C.ar    1  UNL1        0.1453
      6 C          64.2703   87.4542   14.9321 C.ar    1  UNL1        0.0376
      7 C          64.2065   85.9916   14.6050 C.ar    1  UNL1        0.0076
      8 O          64.5363   82.7315   15.3597 O.2     1  UNL1       -0.2701
      9 C          63.3356   83.6026   15.1382 C.2     1  UNL1        0.2461
     10 N          62.0709   83.0114   14.5896 N.am    1  UNL1       -0.2956
     11 H          61.2827   83.5832   14.4443 H       1  UNL1        0.1501
     12 C          62.0070   81.5488   14.2625 C.3     1  UNL1        0.1361
     13 C          62.4124   81.0663   12.9013 C.ar    1  UNL1        0.0821
     14 C          62.8520   82.0495   11.8572 C.ar    1  UNL1        0.0371
     15 C          63.2574   81.5670   10.4961 C.ar    1  UNL1        0.1019
     16 N          63.2232   80.1012   10.1790 N.ar    1  UNL1       -0.2224
     17 C          62.7837   79.1180   11.2231 C.ar    1  UNL1        0.1986
     18 N          62.3782   79.6006   12.5843 N.ar    1  UNL1       -0.2266
     19 C          64.1195   90.4253   15.4345 C.ar    1  UNL1        0.1453
     20 C          65.2374   91.3557   15.8012 C.ar    1  UNL1        0.0381
     21 C          65.7664   92.3283   14.7891 C.ar    1  UNL1        0.0114
     22 C          65.1772   92.3704   13.4102 C.ar    1  UNL1        0.0419
     23 C          64.0593   91.4400   13.0435 C.ar    1  UNL1        0.0114
     24 C          63.5304   90.4674   14.0557 C.ar    1  UNL1        0.0381
     25 C          65.7061   93.3430   12.3982 C.1     1  UNL1       -0.0621
     26 C          66.2351   94.3156   11.3862 C.1     1  UNL1       -0.0597
     27 C          66.9656   96.0265    9.3850 C.3     1  UNL1        0.1561
     28 O          66.0054   96.2285   11.4670 O.3     1  UNL1       -0.3739
     29 C          67.3785   94.9202    8.7177 C.3     1  UNL1        0.1120
     30 N          67.6433   94.2787    8.2746 N.3     1  UNL1       -0.2699
     31 C          67.7905   95.6324    7.6456 C.3     1  UNL1        0.0723
     32 C          67.3338   96.8559    8.3836 C.3     1  UNL1        0.0207
     33 C          66.7300   96.7256    9.7505 C.3     1  UNL1        0.0404
     34 C          66.5829   95.3718   10.3795 C.3     1  UNL1        0.0207
     35 C          67.0395   94.1484    9.6415 C.3     1  UNL1        0.0723
     36 H          65.9135   95.3498   11.8673 H       1  UNL1        0.2115
@<TRIPOS>BOND
     1     8     9    2
     2     9    10   am
     3    10    12    1
     4    12    13    1
     5    13    14   ar
     6    14    15   ar
     7    15    16   ar
     8    16    17   ar
     9    17    18   ar
    10     9     2    1
    11     2     3   ar
    12     3     4   ar
    13     4     5   ar
    14     5     1    1
    15     1    19    1
    16    19    20   ar
    17    20    21   ar
    18    21    22   ar
    19    22    25    1
    20    25    26    3
    21    26    27    1
    22    27    28    1
    23    27    29    1
    24    29    30    1
    25    30    31    1
    26    31    32    1
    27    32    33    1
    28    33    34    1
    29    34    35    1
    30    22    23   ar
    31    23    24   ar
    32     5     6   ar
    33     6     7   ar
    34    18    13   ar
    35     7     2   ar
    36    24    19   ar
    37    33    27    1
    38    35    30    1
    39    10    11    1
    40    28    36    1
@<TRIPOS>MOLECULE
*****
 36 40 0 0 0
SMALL
GASTEIGER

@<TRIPOS>ATOM
      1 O          58.3114   89.1289    7.0312 O.3     1  UNL1       -0.4535
      2 C          61.2814   86.5771    9.2488 C.ar    1  UNL1        0.0536
      3 C          60.4395   85.9760    8.1627 C.ar    1  UNL1        0.0076
      4 C          59.4495   86.8265    7.4235 C.ar    1  UNL1        0.0376
      5 C          59.3014   88.2783    7.7704 C.ar    1  UNL1        0.1453
      6 C          60.1433   88.8795    8.8567 C.ar    1  UNL1        0.0376
      7 C          61.1333   88.0288    9.5959 C.ar    1  UNL1        0.0076
      8 O          63.2765   84.9131    9.2278 O.2     1  UNL1       -0.2701
      9 C          62.2714   85.7264    9.9880 C.2     1  UNL1        0.2461
     10 N          62.2561   85.6892   11.4875 N.am    1  UNL1       -0.2956
     11 H          61.5963   86.2231   11.9864 H       1  UNL1        0.1501
     12 C          63.2461   84.8386   12.2268 C.3     1  UNL1        0.1361
     13 C          62.8906   83.4314   12.6054 C.ar    1  UNL1        0.0821
     14 C          63.1352   82.3102   11.6395 C.ar    1  UNL1        0.0371
     15 C          62.7797   80.9030   12.0181 C.ar    1  UNL1        0.1019
     16 N          62.1795   80.6170   13.3627 N.ar    1  UNL1       -0.2224
     17 C          61.9348   81.7382   14.3287 C.ar    1  UNL1        0.1986
     18 N          62.2903   83.1454   13.9500 N.ar    1  UNL1       -0.2266
     19 C          58.7893   90.1311    6.0226 C.ar    1  UNL1        0.1453
     20 C          60.2456   90.2059    5.6714 C.ar    1  UNL1        0.0381
     21 C          60.7235   91.2080    4.6628 C.ar    1  UNL1        0.0114
     22 C          59.7448   92.1354    4.0052 C.ar    1  UNL1        0.0419
     23 C          58.2884   92.0606    4.3564 C.ar    1  UNL1        0.0114
     24 C          57.8106   91.0584    5.3650 C.ar    1  UNL1        0.0381
     25 C          60.2227   93.1375    2.9966 C.1     1  UNL1       -0.0621
     26 C          60.7004   94.1397    1.9880 C.1     1  UNL1       -0.0597
     27 C          61.7893   95.7853    0.0980 C.3     1  UNL1        0.1561
     28 O          59.7730   95.6344    1.1978 O.3     1  UNL1       -0.3739
     29 C          62.8997   95.0132    0.2009 C.3     1  UNL1        0.1120
     30 N          63.5955   94.5739    0.2285 N.3     1  UNL1       -0.2699
     31 C          63.5741   95.7338   -0.7223 C.3     1  UNL1        0.0723
     32 C          62.3461   96.5876   -0.8361 C.3     1  UNL1        0.0207
     33 C          61.1395   96.2815    0.0009 C.3     1  UNL1        0.0404
     34 C          61.1610   95.1216    0.9517 C.3     1  UNL1        0.0207
     35 C          62.3890   94.2678    1.0655 C.3     1  UNL1        0.0723
     36 H          59.7943   94.8826    1.8104 H       1  UNL1        0.2115
@<TRIPOS>BOND
     1     8     9    2
     2     9    10   am
     3    10    12    1
     4    12    13    1
     5    13    14   ar
     6    14    15   ar
     7    15    16   ar
     8    16    17   ar
     9    17    18   ar
    10     9     2    1
    11     2     3   ar
    12     3     4   ar
    13     4     5   ar
    14     5     1    1
    15     1    19    1
    16    19    20   ar
    17    20    21   ar
    18    21    22   ar
    19    22    25    1
    20    25    26    3
    21    26    27    1
    22    27    28    1
    23    27    29    1
    24    29    30    1
    25    30    31    1
    26    31    32    1
    27    32    33    1
    28    33    34    1
    29    34    35    1
    30    22    23   ar
    31    23    24   ar
    32     5     6   ar
    33     6     7   ar
    34    18    13   ar
    35     7     2   ar
    36    24    19   ar
    37    33    27    1
    38    35    30    1
    39    10    11    1
    40    28    36    1
@<TRIPOS>MOLECULE
*****
 36 40 0 0 0
SMALL
GASTEIGER

@<TRIPOS>ATOM
      1 O          58.3969   89.7121    6.6616 O.3     1  UNL1       -0.4535
      2 C          60.4276   92.2719    3.5675 C.ar    1  UNL1        0.0536
      3 C          61.2248   91.2786    4.3598 C.ar    1  UNL1        0.0076
      4 C          60.5480   90.4254    5.3911 C.ar    1  UNL1        0.0376
      5 C          59.0738   90.5653    5.6303 C.ar    1  UNL1        0.1453
      6 C          58.2765   91.5586    4.8379 C.ar    1  UNL1        0.0376
      7 C          58.9534   92.4119    3.8065 C.ar    1  UNL1        0.0076
      8 O          62.5922   93.0506    2.3600 O.2     1  UNL1       -0.2701
      9 C          61.1045   93.1252    2.5361 C.2     1  UNL1        0.2461
     10 N          60.2936   94.0529    1.6808 N.am    1  UNL1       -0.2956
     11 H          59.3171   94.1018    1.7963 H       1  UNL1        0.1501
     12 C          60.9705   94.9063    0.6493 C.3     1  UNL1        0.1361
     13 C          60.7558   94.6315   -0.8096 C.ar    1  UNL1        0.0821
     14 C          61.8372   93.9762   -1.6165 C.ar    1  UNL1        0.0371
     15 C          61.6226   93.7015   -3.0754 C.ar    1  UNL1        0.1019
     16 N          60.3263   94.0821   -3.7274 N.ar    1  UNL1       -0.2224
     17 C          59.2449   94.7374   -2.9205 C.ar    1  UNL1        0.1986
     18 N          59.4596   95.0121   -1.4616 N.ar    1  UNL1       -0.2266
     19 C          59.2057   88.7718    7.5053 C.ar    1  UNL1        0.1453
     20 C          59.1726   87.2980    7.2280 C.ar    1  UNL1        0.0381
     21 C          59.9813   86.3577    8.0716 C.ar    1  UNL1        0.0114
     22 C          60.8232   86.8912    9.1927 C.ar    1  UNL1        0.0419
     23 C          60.8563   88.3649    9.4700 C.ar    1  UNL1        0.0114
     24 C          60.0475   89.3053    8.6263 C.ar    1  UNL1        0.0381
     25 C          61.6319   85.9509   10.0363 C.1     1  UNL1       -0.0621
     26 C          62.4406   85.0105   10.8798 C.1     1  UNL1       -0.0597
     27 C          63.8211   83.4467   12.6445 C.3     1  UNL1        0.1561
     28 O          63.6376   83.5926   10.3548 O.3     1  UNL1       -0.3739
     29 C          63.2217   84.1782   13.6167 C.3     1  UNL1        0.1120
     30 N          62.8824   84.5943   14.2410 N.3     1  UNL1       -0.2699
     31 C          63.8321   83.4931   14.6089 C.3     1  UNL1        0.0723
     32 C          64.4951   82.6842   13.5337 C.3     1  UNL1        0.0207
     33 C          64.2084   82.9764   12.0907 C.3     1  UNL1        0.0404
     34 C          63.2587   84.0776   11.7228 C.3     1  UNL1        0.0207
     35 C          62.5957   84.8866   12.7979 C.3     1  UNL1        0.0723
     36 H          63.0224   84.3063   10.1246 H       1  UNL1        0.2115
@<TRIPOS>BOND
     1     8     9    2
     2     9    10   am
     3    10    12    1
     4    12    13    1
     5    13    14   ar
     6    14    15   ar
     7    15    16   ar
     8    16    17   ar
     9    17    18   ar
    10     9     2    1
    11     2     3   ar
    12     3     4   ar
    13     4     5   ar
    14     5     1    1
    15     1    19    1
    16    19    20   ar
    17    20    21   ar
    18    21    22   ar
    19    22    25    1
    20    25    26    3
    21    26    27    1
    22    27    28    1
    23    27    29    1
    24    29    30    1
    25    30    31    1
    26    31    32    1
    27    32    33    1
    28    33    34    1
    29    34    35    1
    30    22    23   ar
    31    23    24   ar
    32     5     6   ar
    33     6     7   ar
    34    18    13   ar
    35     7     2   ar
    36    24    19   ar
    37    33    27    1
    38    35    30    1
    39    10    11    1
    40    28    36    1
@<TRIPOS>MOLECULE
*****
 36 40 0 0 0
SMALL
GASTEIGER

@<TRIPOS>ATOM
      1 O          64.1068   90.3577   15.9826 O.3     1  UNL1       -0.4535
      2 C          65.9031   93.2306   13.0212 C.ar    1  UNL1        0.0536
      3 C          64.8025   92.3048   12.5952 C.ar    1  UNL1        0.0076
      4 C          64.2037   91.3472   13.5823 C.ar    1  UNL1        0.0376
      5 C          64.7055   91.3153   14.9955 C.ar    1  UNL1        0.1453
      6 C          65.8062   92.2411   15.4216 C.ar    1  UNL1        0.0376
      7 C          66.4050   93.1988   14.4344 C.ar    1  UNL1        0.0076
      8 O          67.4616   93.6909   10.9941 O.2     1  UNL1       -0.2701
      9 C          66.5019   94.1882   12.0340 C.2     1  UNL1        0.2461
     10 N          66.1408   95.6431   12.0869 N.am    1  UNL1       -0.2956
     11 H          65.5109   95.9695   12.7695 H       1  UNL1        0.1501
     12 C          66.7396   96.6008   11.0997 C.3     1  UNL1        0.1361
     13 C          66.2044   96.6673    9.7000 C.ar    1  UNL1        0.0821
     14 C          67.1463   96.6179    8.5337 C.ar    1  UNL1        0.0371
     15 C          66.6111   96.6843    7.1340 C.ar    1  UNL1        0.1019
     16 N          65.1339   96.8003    6.9007 N.ar    1  UNL1       -0.2224
     17 C          64.1919   96.8497    8.0670 C.ar    1  UNL1        0.1986
     18 N          64.7272   96.7832    9.4667 N.ar    1  UNL1       -0.2266
     19 C          63.8913   88.9234   15.6002 C.ar    1  UNL1        0.1453
     20 C          63.4102   87.9383   16.6240 C.ar    1  UNL1        0.0381
     21 C          63.1947   86.5040   16.2416 C.ar    1  UNL1        0.0114
     22 C          63.4603   86.0547   14.8353 C.ar    1  UNL1        0.0419
     23 C          63.9414   87.0397   13.8115 C.ar    1  UNL1        0.0114
     24 C          64.1569   88.4741   14.1939 C.ar    1  UNL1        0.0381
     25 C          63.2448   84.6204   14.4529 C.1     1  UNL1       -0.0621
     26 C          63.0294   83.1860   14.0707 C.1     1  UNL1       -0.0597
     27 C          62.5436   80.6709   13.1200 C.3     1  UNL1        0.1561
     28 O          62.3454   81.7406   15.1484 O.3     1  UNL1       -0.3739
     29 C          62.9768   81.1410   11.9239 C.3     1  UNL1        0.1120
     30 N          63.2315   81.3806   11.1784 N.3     1  UNL1       -0.2699
     31 C          62.7891   79.9532   11.3075 C.3     1  UNL1        0.0723
     32 C          62.3100   79.4332   12.6303 C.3     1  UNL1        0.0207
     33 C          62.2732   80.3407   13.8241 C.3     1  UNL1        0.0404
     34 C          62.7156   81.7681   13.6950 C.3     1  UNL1        0.0207
     35 C          63.1947   82.2881   12.3722 C.3     1  UNL1        0.0723
     36 H          62.6330   82.6625   15.0573 H       1  UNL1        0.2115
@<TRIPOS>BOND
     1     8     9    2
     2     9    10   am
     3    10    12    1
     4    12    13    1
     5    13    14   ar
     6    14    15   ar
     7    15    16   ar
     8    16    17   ar
     9    17    18   ar
    10     9     2    1
    11     2     3   ar
    12     3     4   ar
    13     4     5   ar
    14     5     1    1
    15     1    19    1
    16    19    20   ar
    17    20    21   ar
    18    21    22   ar
    19    22    25    1
    20    25    26    3
    21    26    27    1
    22    27    28    1
    23    27    29    1
    24    29    30    1
    25    30    31    1
    26    31    32    1
    27    32    33    1
    28    33    34    1
    29    34    35    1
    30    22    23   ar
    31    23    24   ar
    32     5     6   ar
    33     6     7   ar
    34    18    13   ar
    35     7     2   ar
    36    24    19   ar
    37    33    27    1
    38    35    30    1
    39    10    11    1
    40    28    36    1
@<TRIPOS>MOLECULE
*****
 36 40 0 0 0
SMALL
GASTEIGER

@<TRIPOS>ATOM
      1 O          59.1496   88.9458    7.4075 O.3     1  UNL1       -0.4535
      2 C          61.8755   89.1439   10.9824 C.ar    1  UNL1        0.0536
      3 C          61.9076   87.9460   10.0802 C.ar    1  UNL1        0.0076
      4 C          60.9990   87.8800    8.8886 C.ar    1  UNL1        0.0376
      5 C          60.0582   89.0118    8.5991 C.ar    1  UNL1        0.1453
      6 C          60.0261   90.2098    9.5013 C.ar    1  UNL1        0.0376
      7 C          60.9348   90.2758   10.6930 C.ar    1  UNL1        0.0076
      8 O          63.4393   87.9622   12.6877 O.2     1  UNL1       -0.2701
      9 C          62.7842   89.2099   12.1740 C.2     1  UNL1        0.2461
     10 N          63.0378   90.5237   12.8519 N.am    1  UNL1       -0.2956
     11 H          62.6078   91.3427   12.5147 H       1  UNL1        0.1501
     12 C          63.9465   90.5898   14.0436 C.3     1  UNL1        0.1361
     13 C          65.1836   91.4367   13.9973 C.ar    1  UNL1        0.0821
     14 C          66.3400   91.1253   14.9004 C.ar    1  UNL1        0.0371
     15 C          67.5772   91.9722   14.8542 C.ar    1  UNL1        0.1019
     16 N          67.6579   93.1307   13.9046 N.ar    1  UNL1       -0.2224
     17 C          66.5014   93.4421   13.0014 C.ar    1  UNL1        0.1986
     18 N          65.2643   92.5951   13.0477 N.ar    1  UNL1       -0.2266
     19 C          59.2932   89.9456    6.2984 C.ar    1  UNL1        0.1453
     20 C          60.6426   90.2144    5.7011 C.ar    1  UNL1        0.0381
     21 C          60.7863   91.2141    4.5921 C.ar    1  UNL1        0.0114
     22 C          59.5804   91.9450    4.0804 C.ar    1  UNL1        0.0419
     23 C          58.2311   91.6762    4.6777 C.ar    1  UNL1        0.0114
     24 C          58.0874   90.6765    5.7867 C.ar    1  UNL1        0.0381
     25 C          59.7242   92.9447    2.9714 C.1     1  UNL1       -0.0621
     26 C          59.8679   93.9445    1.8625 C.1     1  UNL1       -0.0597
     27 C          59.9850   95.5799   -0.3233 C.3     1  UNL1        0.1561
     28 O          59.8260   95.8702    1.9545 O.3     1  UNL1       -0.3739
     29 C          60.0556   94.4402   -1.0552 C.3     1  UNL1        0.1120
     30 N          60.1007   93.7769   -1.5410 N.3     1  UNL1       -0.2699
     31 C          60.1221   95.1109   -2.2265 C.3     1  UNL1        0.0723
     32 C          60.0441   96.3713   -1.4170 C.3     1  UNL1        0.0207
     33 C          59.9446   96.2977    0.0779 C.3     1  UNL1        0.0404
     34 C          59.9232   94.9637    0.7633 C.3     1  UNL1        0.0207
     35 C          60.0012   93.7033   -0.0461 C.3     1  UNL1        0.0723
     36 H          59.8126   95.0039    2.3907 H       1  UNL1        0.2115
@<TRIPOS>BOND
     1     8     9    2
     2     9    10   am
     3    10    12    1
     4    12    13    1
     5    13    14   ar
     6    14    15   ar
     7    15    16   ar
     8    16    17   ar
     9    17    18   ar
    10     9     2    1
    11     2     3   ar
    12     3     4   ar
    13     4     5   ar
    14     5     1    1
    15     1    19    1
    16    19    20   ar
    17    20    21   ar
    18    21    22   ar
    19    22    25    1
    20    25    26    3
    21    26    27    1
    22    27    28    1
    23    27    29    1
    24    29    30    1
    25    30    31    1
    26    31    32    1
    27    32    33    1
    28    33    34    1
    29    34    35    1
    30    22    23   ar
    31    23    24   ar
    32     5     6   ar
    33     6     7   ar
    34    18    13   ar
    35     7     2   ar
    36    24    19   ar
    37    33    27    1
    38    35    30    1
    39    10    11    1
    40    28    36    1
@<TRIPOS>MOLECULE
*****
 36 40 0 0 0
SMALL
GASTEIGER

@<TRIPOS>ATOM
      1 O          58.9328   88.9425    7.2660 O.3     1  UNL1       -0.4535
      2 C          61.8087   88.3995   10.6842 C.ar    1  UNL1        0.0536
      3 C          61.5086   87.2512    9.7668 C.ar    1  UNL1        0.0076
      4 C          60.5500   87.4322    8.6275 C.ar    1  UNL1        0.0376
      5 C          59.8914   88.7615    8.4054 C.ar    1  UNL1        0.1453
      6 C          60.1915   89.9098    9.3227 C.ar    1  UNL1        0.0376
      7 C          61.1502   89.7287   10.4621 C.ar    1  UNL1        0.0076
      8 O          63.1275   86.8387   12.2887 O.2     1  UNL1       -0.2701
      9 C          62.7674   88.2184   11.8236 C.2     1  UNL1        0.2461
     10 N          63.3659   89.4172   12.4978 N.am    1  UNL1       -0.2956
     11 H          63.1295   90.3228   12.1924 H       1  UNL1        0.1501
     12 C          64.3246   89.2363   13.6372 C.3     1  UNL1        0.1361
     13 C          63.9210   88.4303   14.8362 C.ar    1  UNL1        0.0821
     14 C          63.2839   89.1058   16.0142 C.ar    1  UNL1        0.0371
     15 C          62.8803   88.2999   17.2131 C.ar    1  UNL1        0.1019
     16 N          63.1138   86.8182   17.2340 N.ar    1  UNL1       -0.2224
     17 C          63.7508   86.1427   16.0559 C.ar    1  UNL1        0.1986
     18 N          64.1544   86.9487   14.8570 N.ar    1  UNL1       -0.2266
     19 C          59.2032   89.9788    6.2157 C.ar    1  UNL1        0.1453
     20 C          60.5983   90.1811    5.7034 C.ar    1  UNL1        0.0381
     21 C          60.8688   91.2173    4.6532 C.ar    1  UNL1        0.0114
     22 C          59.7439   92.0513    4.1152 C.ar    1  UNL1        0.0419
     23 C          58.3487   91.8489    4.6274 C.ar    1  UNL1        0.0114
     24 C          58.0783   90.8126    5.6777 C.ar    1  UNL1        0.0381
     25 C          60.0144   93.0875    3.0649 C.1     1  UNL1       -0.0621
     26 C          60.2847   94.1237    2.0147 C.1     1  UNL1       -0.0597
     27 C          61.0308   95.8813    0.0602 C.3     1  UNL1        0.1561
     28 O          59.3628   95.7762    1.6428 O.3     1  UNL1       -0.3739
     29 C          62.0340   95.0094   -0.2101 C.3     1  UNL1        0.1120
     30 N          62.6582   94.5113   -0.4107 N.3     1  UNL1       -0.2699
     31 C          62.5256   95.7732   -1.2106 C.3     1  UNL1        0.0723
     32 C          61.4162   96.7375   -0.9117 C.3     1  UNL1        0.0207
     33 C          60.4394   96.4399    0.1871 C.3     1  UNL1        0.0404
     34 C          60.5720   95.1780    0.9870 C.3     1  UNL1        0.0207
     35 C          61.6814   94.2137    0.6881 C.3     1  UNL1        0.0723
     36 H          59.4550   94.9581    2.1558 H       1  UNL1        0.2115
@<TRIPOS>BOND
     1     8     9    2
     2     9    10   am
     3    10    12    1
     4    12    13    1
     5    13    14   ar
     6    14    15   ar
     7    15    16   ar
     8    16    17   ar
     9    17    18   ar
    10     9     2    1
    11     2     3   ar
    12     3     4   ar
    13     4     5   ar
    14     5     1    1
    15     1    19    1
    16    19    20   ar
    17    20    21   ar
    18    21    22   ar
    19    22    25    1
    20    25    26    3
    21    26    27    1
    22    27    28    1
    23    27    29    1
    24    29    30    1
    25    30    31    1
    26    31    32    1
    27    32    33    1
    28    33    34    1
    29    34    35    1
    30    22    23   ar
    31    23    24   ar
    32     5     6   ar
    33     6     7   ar
    34    18    13   ar
    35     7     2   ar
    36    24    19   ar
    37    33    27    1
    38    35    30    1
    39    10    11    1
    40    28    36    1
@<TRIPOS>MOLECULE
*****
 36 40 0 0 0
SMALL
GASTEIGER

@<TRIPOS>ATOM
      1 O          58.6712   90.1809    5.7280 O.3     1  UNL1       -0.4535
      2 C          60.2409   88.1357    9.4162 C.ar    1  UNL1        0.0536
      3 C          60.4857   89.6010    9.2095 C.ar    1  UNL1        0.0076
      4 C          59.9625   90.2827    7.9801 C.ar    1  UNL1        0.0376
      5 C          59.1944   89.4992    6.9573 C.ar    1  UNL1        0.1453
      6 C          58.9496   88.0337    7.1640 C.ar    1  UNL1        0.0376
      7 C          59.4728   87.3520    8.3935 C.ar    1  UNL1        0.0076
      8 O          60.2184   87.8175   11.9946 O.2     1  UNL1       -0.2701
      9 C          60.7641   87.4539   10.6456 C.2     1  UNL1        0.2461
     10 N          61.8332   86.4086   10.5259 N.am    1  UNL1       -0.2956
     11 H          62.1914   86.1700    9.6405 H       1  UNL1        0.1501
     12 C          62.3565   85.7268   11.7554 C.3     1  UNL1        0.1361
     13 C          63.1177   84.4402   11.6329 C.ar    1  UNL1        0.0821
     14 C          63.5247   83.9352   10.2804 C.ar    1  UNL1        0.0371
     15 C          64.2859   82.6485   10.1579 C.ar    1  UNL1        0.1019
     16 N          64.6402   81.8668   11.3881 N.ar    1  UNL1       -0.2224
     17 C          64.2332   82.3717   12.7407 C.ar    1  UNL1        0.1986
     18 N          63.4720   83.6584   12.8631 N.ar    1  UNL1       -0.2266
     19 C          59.6043   90.9559    4.8454 C.ar    1  UNL1        0.1453
     20 C          61.0587   90.5930    4.7897 C.ar    1  UNL1        0.0381
     21 C          61.9918   91.3679    3.9073 C.ar    1  UNL1        0.0114
     22 C          61.4705   92.5058    3.0804 C.ar    1  UNL1        0.0419
     23 C          60.0161   92.8687    3.1362 C.ar    1  UNL1        0.0114
     24 C          59.0830   92.0937    4.0187 C.ar    1  UNL1        0.0381
     25 C          62.4036   93.2807    2.1980 C.1     1  UNL1       -0.0621
     26 C          63.3368   94.0555    1.3155 C.1     1  UNL1       -0.0597
     27 C          64.9512   95.7022   -0.1499 C.3     1  UNL1        0.1561
     28 O          64.5934   95.2979    2.0876 O.3     1  UNL1       -0.3739
     29 C          64.3713   95.1440   -1.2416 C.3     1  UNL1        0.1120
     30 N          64.0484   94.8348   -1.9329 N.3     1  UNL1       -0.2699
     31 C          65.0999   95.8913   -2.1000 C.3     1  UNL1        0.0723
     32 C          65.7413   96.5086   -0.8928 C.3     1  UNL1        0.0207
     33 C          65.3310   96.0695    0.4816 C.3     1  UNL1        0.0404
     34 C          64.2794   95.0131    0.6487 C.3     1  UNL1        0.0207
     35 C          63.6381   94.3957   -0.5586 C.3     1  UNL1        0.0723
     36 H          63.9126   94.6142    2.1877 H       1  UNL1        0.2115
@<TRIPOS>BOND
     1     8     9    2
     2     9    10   am
     3    10    12    1
     4    12    13    1
     5    13    14   ar
     6    14    15   ar
     7    15    16   ar
     8    16    17   ar
     9    17    18   ar
    10     9     2    1
    11     2     3   ar
    12     3     4   ar
    13     4     5   ar
    14     5     1    1
    15     1    19    1
    16    19    20   ar
    17    20    21   ar
    18    21    22   ar
    19    22    25    1
    20    25    26    3
    21    26    27    1
    22    27    28    1
    23    27    29    1
    24    29    30    1
    25    30    31    1
    26    31    32    1
    27    32    33    1
    28    33    34    1
    29    34    35    1
    30    22    23   ar
    31    23    24   ar
    32     5     6   ar
    33     6     7   ar
    34    18    13   ar
    35     7     2   ar
    36    24    19   ar
    37    33    27    1
    38    35    30    1
    39    10    11    1
    40    28    36    1
@<TRIPOS>MOLECULE
*****
 36 40 0 0 0
SMALL
GASTEIGER

@<TRIPOS>ATOM
      1 O          58.6231   90.1848    6.0883 O.3     1  UNL1       -0.4535
      2 C          60.4417   87.6385    9.3223 C.ar    1  UNL1        0.0536
      3 C          60.6310   89.1263    9.3436 C.ar    1  UNL1        0.0076
      4 C          60.0248   89.9751    8.2657 C.ar    1  UNL1        0.0376
      5 C          59.2293   89.3361    7.1662 C.ar    1  UNL1        0.1453
      6 C          59.0399   87.8481    7.1449 C.ar    1  UNL1        0.0376
      7 C          59.6462   86.9994    8.2230 C.ar    1  UNL1        0.0076
      8 O          60.5613   86.9120   11.8138 O.2     1  UNL1       -0.2701
      9 C          61.0479   86.7897   10.4004 C.2     1  UNL1        0.2461
     10 N          62.1409   85.8188   10.0647 N.am    1  UNL1       -0.2956
     11 H          62.4604   85.7386    9.1370 H       1  UNL1        0.1501
     12 C          62.7472   84.9700   11.1428 C.3     1  UNL1        0.1361
     13 C          63.2036   85.5996   12.4254 C.ar    1  UNL1        0.0821
     14 C          63.4652   84.7442   13.6294 C.ar    1  UNL1        0.0371
     15 C          63.9215   85.3738   14.9121 C.ar    1  UNL1        0.1019
     16 N          64.1162   86.8591   14.9907 N.ar    1  UNL1       -0.2224
     17 C          63.8546   87.7146   13.7867 C.ar    1  UNL1        0.1986
     18 N          63.3983   87.0849   12.5041 N.ar    1  UNL1       -0.2266
     19 C          59.5080   90.9164    5.1230 C.ar    1  UNL1        0.1453
     20 C          60.9516   90.5314    4.9892 C.ar    1  UNL1        0.0381
     21 C          61.8365   91.2629    4.0239 C.ar    1  UNL1        0.0114
     22 C          61.2778   92.3795    3.1924 C.ar    1  UNL1        0.0419
     23 C          59.8343   92.7644    3.3262 C.ar    1  UNL1        0.0114
     24 C          58.9494   92.0329    4.2915 C.ar    1  UNL1        0.0381
     25 C          62.1628   93.1110    2.2272 C.1     1  UNL1       -0.0621
     26 C          63.0479   93.8425    1.2621 C.1     1  UNL1       -0.0597
     27 C          64.4447   95.1538   -0.6860 C.3     1  UNL1        0.1561
     28 O          64.3322   95.2379    1.6114 O.3     1  UNL1       -0.3739
     29 C          63.7762   94.3658   -1.5645 C.3     1  UNL1        0.1120
     30 N          63.3952   93.9106   -2.1351 N.3     1  UNL1       -0.2699
     31 C          64.3862   94.9190   -2.6360 C.3     1  UNL1        0.0723
     32 C          65.1255   95.7905   -1.6645 C.3     1  UNL1        0.0207
     33 C          64.8738   95.6536   -0.1921 C.3     1  UNL1        0.0404
     34 C          63.8828   94.6451    0.3088 C.3     1  UNL1        0.0207
     35 C          63.1435   93.7736   -0.6627 C.3     1  UNL1        0.0723
     36 H          63.6899   94.5835    1.9278 H       1  UNL1        0.2115
@<TRIPOS>BOND
     1     8     9    2
     2     9    10   am
     3    10    12    1
     4    12    13    1
     5    13    14   ar
     6    14    15   ar
     7    15    16   ar
     8    16    17   ar
     9    17    18   ar
    10     9     2    1
    11     2     3   ar
    12     3     4   ar
    13     4     5   ar
    14     5     1    1
    15     1    19    1
    16    19    20   ar
    17    20    21   ar
    18    21    22   ar
    19    22    25    1
    20    25    26    3
    21    26    27    1
    22    27    28    1
    23    27    29    1
    24    29    30    1
    25    30    31    1
    26    31    32    1
    27    32    33    1
    28    33    34    1
    29    34    35    1
    30    22    23   ar
    31    23    24   ar
    32     5     6   ar
    33     6     7   ar
    34    18    13   ar
    35     7     2   ar
    36    24    19   ar
    37    33    27    1
    38    35    30    1
    39    10    11    1
    40    28    36    1
