@<TRIPOS>MOLECULE
*****
 37 40 0 0 0
SMALL
GASTEIGER

@<TRIPOS>ATOM
      1 C          63.5922   89.4632   15.5873 C.ar    1  UNL1        0.1674
      2 C          64.3187   88.6104   14.5898 C.ar    1  UNL1        0.1360
      3 N          64.3918   87.1250   14.7850 N.ar    1  UNL1       -0.2413
      4 C          63.7384   86.4923   15.9778 C.ar    1  UNL1        0.1046
      5 C          63.0119   87.3450   16.9753 C.ar    1  UNL1        0.1558
      6 C          62.9388   88.8305   16.7801 C.ar    1  UNL1        0.0772
      7 O          62.3585   86.7122   18.1681 O.3     1  UNL1       -0.4701
      8 C          62.6976   87.1883   19.5496 C.3     1  UNL1        0.2525
      9 O          63.5192   90.9486   15.3921 O.3     1  UNL1       -0.4517
     10 C          65.9701   92.8940   10.9809 C.ar    1  UNL1        0.1737
     11 C          66.8263   93.2973   12.1446 C.ar    1  UNL1        0.0592
     12 C          66.4277   92.9118   13.5384 C.ar    1  UNL1        0.0875
     13 N          67.2839   93.3152   14.7020 N.ar    1  UNL1       -0.2435
     14 C          66.8853   92.9296   16.0957 C.ar    1  UNL1        0.1020
     15 C          65.6303   92.1408   16.3257 C.ar    1  UNL1        0.0581
     16 C          64.7741   91.7375   15.1621 C.ar    1  UNL1        0.1484
     17 C          65.1728   92.1230   13.7684 C.ar    1  UNL1        0.0554
     18 C          64.3165   91.7196   12.6046 C.ar    1  UNL1        0.0446
     19 C          64.7152   92.1051   11.2110 C.ar    1  UNL1        0.1726
     20 O          63.8589   91.7018   10.0472 O.3     1  UNL1       -0.4684
     21 C          62.7344   90.7291   10.2451 C.3     1  UNL1        0.2526
     22 O          66.3688   93.2795    9.5871 O.3     1  UNL1       -0.4724
     23 C          68.7409   92.4181    8.9699 C.3     1  UNL1        0.0512
     24 C          67.8083   93.5546    9.2678 C.3     1  UNL1        0.2057
     25 C          63.8115   85.0068   16.1730 C.3     1  UNL1        0.1612
     26 C          63.3353   84.0838   15.0907 C.2     1  UNL1        0.3165
     27 O          62.2312   84.5133   14.1707 O.2     1  UNL1       -0.2465
     28 N          63.9632   82.7313   14.9285 N.am    1  UNL1       -0.1709
     29 H          64.6878   82.4494   15.5324 H       1  UNL1        0.3011
     30 C          63.4870   81.8082   13.8462 C.2     1  UNL1        0.3352
     31 N          62.7134   80.5389   14.0471 N.2     1  UNL1        0.0754
     32 N          62.4492   79.9387   12.6981 N.2     1  UNL1       -0.0428
     33 C          63.0595   80.8370   11.6634 C.2     1  UNL1        0.0944
     34 C          63.7010   81.9924   12.3730 C.3     1  UNL1        0.1480
     35 C          64.4286   83.1321   11.7235 C.3     1  UNL1        0.0190
     36 C          63.0331   80.6183   10.1797 C.3     1  UNL1        0.0459
     37 C          62.7524   79.2520    9.6279 C.3     1  UNL1        0.0065
@<TRIPOS>BOND
     1    23    24    1
     2    24    22    1
     3    22    10    1
     4    10    11   ar
     5    11    12   ar
     6    12    13   ar
     7    13    14   ar
     8    14    15   ar
     9    15    16   ar
    10    16     9    1
    11     9     1    1
    12     1     2   ar
    13     2     3   ar
    14     3     4   ar
    15     4    25    1
    16    25    26    1
    17    26    27    2
    18    26    28   am
    19    28    30    1
    20    30    31    2
    21    31    32    1
    22    32    33    2
    23    33    36    1
    24    36    37    1
    25    33    34    1
    26    34    35    1
    27     4     5   ar
    28     5     7    1
    29     7     8    1
    30     5     6   ar
    31    16    17   ar
    32    17    18   ar
    33    18    19   ar
    34    19    20    1
    35    20    21    1
    36    19    10   ar
    37    17    12   ar
    38     6     1   ar
    39    34    30    1
    40    28    29    1
@<TRIPOS>MOLECULE
*****
 37 40 0 0 0
SMALL
GASTEIGER

@<TRIPOS>ATOM
      1 C          63.9204   89.4918   15.4787 C.ar    1  UNL1        0.1674
      2 C          63.0144   89.1474   16.6236 C.ar    1  UNL1        0.1360
      3 N          62.7574   87.7110   16.9708 N.ar    1  UNL1       -0.2413
      4 C          63.4063   86.6189   16.1732 C.ar    1  UNL1        0.1046
      5 C          64.3122   86.9632   15.0283 C.ar    1  UNL1        0.1558
      6 C          64.5693   88.3997   14.6811 C.ar    1  UNL1        0.0772
      7 O          64.9611   85.8711   14.2307 O.3     1  UNL1       -0.4701
      8 C          66.2448   85.2570   14.7053 C.3     1  UNL1        0.2525
      9 O          64.1774   90.9282   15.1315 O.3     1  UNL1       -0.4517
     10 C          61.6584   90.0196   10.4327 C.ar    1  UNL1        0.1737
     11 C          62.8687   90.8423   10.1036 C.ar    1  UNL1        0.0592
     12 C          63.8011   91.2751   11.1961 C.ar    1  UNL1        0.0875
     13 N          65.0114   92.0978   10.8670 N.ar    1  UNL1       -0.2435
     14 C          65.9437   92.5306   11.9594 C.ar    1  UNL1        0.1020
     15 C          65.6657   92.1407   13.3809 C.ar    1  UNL1        0.0581
     16 C          64.4554   91.3180   13.7100 C.ar    1  UNL1        0.1484
     17 C          63.5231   90.8852   12.6176 C.ar    1  UNL1        0.0554
     18 C          62.3128   90.0625   12.9467 C.ar    1  UNL1        0.0446
     19 C          61.3805   89.6297   11.8542 C.ar    1  UNL1        0.1726
     20 O          60.1701   88.8070   12.1833 O.3     1  UNL1       -0.4684
     21 C          58.8432   89.4749   12.3912 C.3     1  UNL1        0.2526
     22 O          60.7261   89.5867    9.3402 O.3     1  UNL1       -0.4724
     23 C          61.7889   87.2171    9.2704 C.3     1  UNL1        0.0512
     24 C          60.6534   88.1415    8.9451 C.3     1  UNL1        0.2057
     25 C          63.1492   85.1824   16.5204 C.3     1  UNL1        0.1612
     26 C          62.7812   84.2048   15.4439 C.2     1  UNL1        0.3165
     27 O          61.5275   84.4054   14.6453 O.2     1  UNL1       -0.2465
     28 N          63.6670   83.0267   15.1661 N.am    1  UNL1       -0.1709
     29 H          64.4899   82.8950   15.6903 H       1  UNL1        0.3011
     30 C          63.2991   82.0490   14.0895 C.2     1  UNL1        0.3352
     31 N          62.6088   80.7328   14.2922 N.2     1  UNL1        0.0754
     32 N          62.4400   80.0863   12.9492 N.2     1  UNL1       -0.0428
     33 C          63.0258   81.0030   11.9165 C.2     1  UNL1        0.0944
     34 C          63.5568   82.2160   12.6213 C.3     1  UNL1        0.1480
     35 C          64.2277   83.3901   11.9718 C.3     1  UNL1        0.0190
     36 C          63.0725   80.7510   10.4386 C.3     1  UNL1        0.0459
     37 C          62.8009   79.3763    9.9033 C.3     1  UNL1        0.0065
@<TRIPOS>BOND
     1    23    24    1
     2    24    22    1
     3    22    10    1
     4    10    11   ar
     5    11    12   ar
     6    12    13   ar
     7    13    14   ar
     8    14    15   ar
     9    15    16   ar
    10    16     9    1
    11     9     1    1
    12     1     2   ar
    13     2     3   ar
    14     3     4   ar
    15     4    25    1
    16    25    26    1
    17    26    27    2
    18    26    28   am
    19    28    30    1
    20    30    31    2
    21    31    32    1
    22    32    33    2
    23    33    36    1
    24    36    37    1
    25    33    34    1
    26    34    35    1
    27     4     5   ar
    28     5     7    1
    29     7     8    1
    30     5     6   ar
    31    16    17   ar
    32    17    18   ar
    33    18    19   ar
    34    19    20    1
    35    20    21    1
    36    19    10   ar
    37    17    12   ar
    38     6     1   ar
    39    34    30    1
    40    28    29    1
@<TRIPOS>MOLECULE
*****
 37 40 0 0 0
SMALL
GASTEIGER

@<TRIPOS>ATOM
      1 C          63.5052   88.9473   15.0980 C.ar    1  UNL1        0.1674
      2 C          64.3673   88.0367   14.2749 C.ar    1  UNL1        0.1360
      3 N          64.5507   86.6052   14.6839 N.ar    1  UNL1       -0.2413
      4 C          63.8720   86.0844   15.9160 C.ar    1  UNL1        0.1046
      5 C          63.0099   86.9950   16.7391 C.ar    1  UNL1        0.1558
      6 C          62.8265   88.4265   16.3301 C.ar    1  UNL1        0.0772
      7 O          62.3312   86.4741   17.9712 O.3     1  UNL1       -0.4701
      8 C          62.7072   87.0136   19.3195 C.3     1  UNL1        0.2525
      9 O          63.3218   90.3788   14.6890 O.3     1  UNL1       -0.4517
     10 C          66.4919   93.2114   11.3459 C.ar    1  UNL1        0.1737
     11 C          65.3276   92.7474   10.5217 C.ar    1  UNL1        0.0592
     12 C          64.2440   91.9232   11.1515 C.ar    1  UNL1        0.0875
     13 N          63.0797   91.4593   10.3274 N.ar    1  UNL1       -0.2435
     14 C          61.9961   90.6352   10.9572 C.ar    1  UNL1        0.1020
     15 C          62.0768   90.2750   12.4111 C.ar    1  UNL1        0.0581
     16 C          63.2411   90.7389   13.2352 C.ar    1  UNL1        0.1484
     17 C          64.3247   91.5631   12.6054 C.ar    1  UNL1        0.0554
     18 C          65.4890   92.0271   13.4295 C.ar    1  UNL1        0.0446
     19 C          66.5726   92.8512   12.7997 C.ar    1  UNL1        0.1726
     20 O          67.7369   93.3152   13.6238 O.3     1  UNL1       -0.4684
     21 C          68.3681   92.3876   14.6195 C.3     1  UNL1        0.2526
     22 O          67.5755   94.0355   10.7161 O.3     1  UNL1       -0.4724
     23 C          68.7376   92.4939    8.9774 C.3     1  UNL1        0.0512
     24 C          68.0031   93.7601    9.3050 C.3     1  UNL1        0.2057
     25 C          64.0555   84.6529   16.3250 C.3     1  UNL1        0.1612
     26 C          63.5176   83.5511   15.4608 C.2     1  UNL1        0.3165
     27 O          62.2440   82.8549   15.8393 O.2     1  UNL1       -0.2465
     28 N          64.2533   83.1457   14.2182 N.am    1  UNL1       -0.1709
     29 H          65.0892   83.6026   13.9698 H       1  UNL1        0.3011
     30 C          63.7155   82.0439   13.3539 C.2     1  UNL1        0.3352
     31 N          63.1038   80.7626   13.8377 N.2     1  UNL1        0.0754
     32 N          62.7052   79.9569   12.6369 N.2     1  UNL1       -0.0428
     33 C          63.0706   80.7402   11.4109 C.2     1  UNL1        0.0944
     34 C          63.6950   82.0300   11.8541 C.3     1  UNL1        0.1480
     35 C          64.2087   83.1156   10.9552 C.3     1  UNL1        0.0190
     36 C          62.8502   80.3093    9.9911 C.3     1  UNL1        0.0459
     37 C          62.8291   78.8500    9.6450 C.3     1  UNL1        0.0065
@<TRIPOS>BOND
     1    23    24    1
     2    24    22    1
     3    22    10    1
     4    10    11   ar
     5    11    12   ar
     6    12    13   ar
     7    13    14   ar
     8    14    15   ar
     9    15    16   ar
    10    16     9    1
    11     9     1    1
    12     1     2   ar
    13     2     3   ar
    14     3     4   ar
    15     4    25    1
    16    25    26    1
    17    26    27    2
    18    26    28   am
    19    28    30    1
    20    30    31    2
    21    31    32    1
    22    32    33    2
    23    33    36    1
    24    36    37    1
    25    33    34    1
    26    34    35    1
    27     4     5   ar
    28     5     7    1
    29     7     8    1
    30     5     6   ar
    31    16    17   ar
    32    17    18   ar
    33    18    19   ar
    34    19    20    1
    35    20    21    1
    36    19    10   ar
    37    17    12   ar
    38     6     1   ar
    39    34    30    1
    40    28    29    1
@<TRIPOS>MOLECULE
*****
 37 40 0 0 0
SMALL
GASTEIGER

@<TRIPOS>ATOM
      1 C          62.6265   88.7382   11.8980 C.ar    1  UNL1        0.1674
      2 C          63.1345   89.9570   11.1863 C.ar    1  UNL1        0.1360
      3 N          64.0699   90.8984   11.8854 N.ar    1  UNL1       -0.2413
      4 C          64.4974   90.6210   13.2962 C.ar    1  UNL1        0.1046
      5 C          63.9894   89.4023   14.0079 C.ar    1  UNL1        0.1558
      6 C          63.0539   88.4608   13.3089 C.ar    1  UNL1        0.0772
      7 O          64.4168   89.1249   15.4187 O.3     1  UNL1       -0.4701
      8 C          63.3910   88.7936   16.4618 C.3     1  UNL1        0.2525
      9 O          61.6911   87.7968   11.1990 O.3     1  UNL1       -0.4517
     10 C          63.2802   82.8541   12.7138 C.ar    1  UNL1        0.1737
     11 C          63.4752   82.9166   11.2279 C.ar    1  UNL1        0.0592
     12 C          63.1267   84.1679   10.4776 C.ar    1  UNL1        0.0875
     13 N          63.3218   84.2304    8.9917 N.ar    1  UNL1       -0.2435
     14 C          62.9733   85.4817    8.2416 C.ar    1  UNL1        0.1020
     15 C          62.4297   86.6705    8.9773 C.ar    1  UNL1        0.0581
     16 C          62.2346   86.6080   10.4632 C.ar    1  UNL1        0.1484
     17 C          62.5832   85.3567   11.2134 C.ar    1  UNL1        0.0554
     18 C          62.3881   85.2942   12.6994 C.ar    1  UNL1        0.0446
     19 C          62.7366   84.0429   13.4496 C.ar    1  UNL1        0.1726
     20 O          62.5416   83.9804   14.9356 O.3     1  UNL1       -0.4684
     21 C          63.0361   85.0985   15.8046 C.3     1  UNL1        0.2526
     22 O          63.6287   81.6028   13.4641 O.3     1  UNL1       -0.4724
     23 C          61.2378   80.7975   14.0843 C.3     1  UNL1        0.0512
     24 C          62.6216   80.4982   13.5891 C.3     1  UNL1        0.2057
     25 C          65.4328   91.5625   13.9953 C.3     1  UNL1        0.1612
     26 C          66.0905   92.6723   13.2299 C.2     1  UNL1        0.3165
     27 O          67.5669   92.9021   13.3620 O.2     1  UNL1       -0.2465
     28 N          65.2718   93.5522   12.3326 N.am    1  UNL1       -0.1709
     29 H          64.3028   93.4014   12.2459 H       1  UNL1        0.3011
     30 C          65.9295   94.6621   11.5672 C.2     1  UNL1        0.3352
     31 N          66.0077   96.0991   11.9901 N.2     1  UNL1        0.0754
     32 N          66.7509   96.8548   10.9288 N.2     1  UNL1       -0.0428
     33 C          67.1321   95.8849    9.8499 C.2     1  UNL1        0.0944
     34 C          66.6244   94.5297   10.2444 C.3     1  UNL1        0.1480
     35 C          66.7836   93.2643    9.4549 C.3     1  UNL1        0.0190
     36 C          67.8881   96.2127    8.5965 C.3     1  UNL1        0.0459
     37 C          67.1487   96.6545    7.3685 C.3     1  UNL1        0.0065
@<TRIPOS>BOND
     1    23    24    1
     2    24    22    1
     3    22    10    1
     4    10    11   ar
     5    11    12   ar
     6    12    13   ar
     7    13    14   ar
     8    14    15   ar
     9    15    16   ar
    10    16     9    1
    11     9     1    1
    12     1     2   ar
    13     2     3   ar
    14     3     4   ar
    15     4    25    1
    16    25    26    1
    17    26    27    2
    18    26    28   am
    19    28    30    1
    20    30    31    2
    21    31    32    1
    22    32    33    2
    23    33    36    1
    24    36    37    1
    25    33    34    1
    26    34    35    1
    27     4     5   ar
    28     5     7    1
    29     7     8    1
    30     5     6   ar
    31    16    17   ar
    32    17    18   ar
    33    18    19   ar
    34    19    20    1
    35    20    21    1
    36    19    10   ar
    37    17    12   ar
    38     6     1   ar
    39    34    30    1
    40    28    29    1
@<TRIPOS>MOLECULE
*****
 37 40 0 0 0
SMALL
GASTEIGER

@<TRIPOS>ATOM
      1 C          62.1699   88.6729   11.0768 C.ar    1  UNL1        0.1674
      2 C          62.4092   89.3426    9.7560 C.ar    1  UNL1        0.1360
      3 N          63.0776   90.6845    9.7057 N.ar    1  UNL1       -0.2413
      4 C          63.5068   91.3567   10.9761 C.ar    1  UNL1        0.1046
      5 C          63.2675   90.6871   12.2968 C.ar    1  UNL1        0.1558
      6 C          62.5990   89.3452   12.3472 C.ar    1  UNL1        0.0772
      7 O          63.6967   91.3593   13.5672 O.3     1  UNL1       -0.4701
      8 C          63.7933   90.5689   14.8384 C.3     1  UNL1        0.2525
      9 O          61.5014   87.3311   11.1271 O.3     1  UNL1       -0.4517
     10 C          63.4494   82.7072   13.1457 C.ar    1  UNL1        0.1737
     11 C          63.6980   82.6531   11.6675 C.ar    1  UNL1        0.0592
     12 C          63.2731   83.7956   10.7932 C.ar    1  UNL1        0.0875
     13 N          63.5217   83.7416    9.3150 N.ar    1  UNL1       -0.2435
     14 C          63.0968   84.8840    8.4408 C.ar    1  UNL1        0.1020
     15 C          62.4234   86.0805    9.0448 C.ar    1  UNL1        0.0581
     16 C          62.1748   86.1346   10.5231 C.ar    1  UNL1        0.1484
     17 C          62.5997   84.9921   11.3973 C.ar    1  UNL1        0.0554
     18 C          62.3512   85.0462   12.8756 C.ar    1  UNL1        0.0446
     19 C          62.7760   83.9037   13.7498 C.ar    1  UNL1        0.1726
     20 O          62.5275   83.9577   15.2281 O.3     1  UNL1       -0.4684
     21 C          63.0320   85.1197   16.0315 C.3     1  UNL1        0.2526
     22 O          63.8743   81.5647   14.0200 O.3     1  UNL1       -0.4724
     23 C          61.5875   80.3627   13.7451 C.3     1  UNL1        0.0512
     24 C          63.0511   80.3118   14.0696 C.3     1  UNL1        0.2057
     25 C          64.1753   92.6986   10.9257 C.3     1  UNL1        0.1612
     26 C          65.4342   92.9391   11.7049 C.2     1  UNL1        0.3165
     27 O          65.9610   94.3342   11.8670 O.2     1  UNL1       -0.2465
     28 N          66.1663   91.7845   12.3221 N.am    1  UNL1       -0.1709
     29 H          65.8205   90.8689   12.2158 H       1  UNL1        0.3011
     30 C          67.4253   92.0250   13.1014 C.2     1  UNL1        0.3352
     31 N          68.8202   91.7285   12.6364 N.2     1  UNL1        0.0754
     32 N          69.7674   92.1244   13.7301 N.2     1  UNL1       -0.0428
     33 C          68.9578   92.6656   14.8711 C.2     1  UNL1        0.0944
     34 C          67.5103   92.6041   14.4825 C.3     1  UNL1        0.1480
     35 C          66.3513   93.0445   15.3268 C.3     1  UNL1        0.0190
     36 C          69.5004   93.1782   16.1721 C.3     1  UNL1        0.0459
     37 C          69.4262   94.6421   16.4910 C.3     1  UNL1        0.0065
@<TRIPOS>BOND
     1    23    24    1
     2    24    22    1
     3    22    10    1
     4    10    11   ar
     5    11    12   ar
     6    12    13   ar
     7    13    14   ar
     8    14    15   ar
     9    15    16   ar
    10    16     9    1
    11     9     1    1
    12     1     2   ar
    13     2     3   ar
    14     3     4   ar
    15     4    25    1
    16    25    26    1
    17    26    27    2
    18    26    28   am
    19    28    30    1
    20    30    31    2
    21    31    32    1
    22    32    33    2
    23    33    36    1
    24    36    37    1
    25    33    34    1
    26    34    35    1
    27     4     5   ar
    28     5     7    1
    29     7     8    1
    30     5     6   ar
    31    16    17   ar
    32    17    18   ar
    33    18    19   ar
    34    19    20    1
    35    20    21    1
    36    19    10   ar
    37    17    12   ar
    38     6     1   ar
    39    34    30    1
    40    28    29    1
@<TRIPOS>MOLECULE
*****
 37 40 0 0 0
SMALL
GASTEIGER

@<TRIPOS>ATOM
      1 C          63.5051   87.2764   13.4766 C.ar    1  UNL1        0.1674
      2 C          64.3831   87.5535   14.6609 C.ar    1  UNL1        0.1360
      3 N          64.9044   88.9394   14.9001 N.ar    1  UNL1       -0.2413
      4 C          64.5479   90.0484   13.9551 C.ar    1  UNL1        0.1046
      5 C          63.6700   89.7713   12.7708 C.ar    1  UNL1        0.1558
      6 C          63.1486   88.3853   12.5316 C.ar    1  UNL1        0.0772
      7 O          63.3134   90.8803   11.8258 O.3     1  UNL1       -0.4701
      8 C          62.9565   90.5673   10.4028 C.3     1  UNL1        0.2525
      9 O          62.9838   85.8904   13.2375 O.3     1  UNL1       -0.4517
     10 C          60.5302   87.0569    8.5610 C.ar    1  UNL1        0.1737
     11 C          61.4147   85.8776    8.2839 C.ar    1  UNL1        0.0592
     12 C          62.2493   85.2911    9.3837 C.ar    1  UNL1        0.0875
     13 N          63.1338   84.1118    9.1066 N.ar    1  UNL1       -0.2435
     14 C          63.9683   83.5253   10.2064 C.ar    1  UNL1        0.1020
     15 C          63.9183   84.1182   11.5834 C.ar    1  UNL1        0.0581
     16 C          63.0338   85.2975   11.8605 C.ar    1  UNL1        0.1484
     17 C          62.1993   85.8839   10.7607 C.ar    1  UNL1        0.0554
     18 C          61.3147   87.0633   11.0378 C.ar    1  UNL1        0.0446
     19 C          60.4802   87.6497    9.9380 C.ar    1  UNL1        0.1726
     20 O          59.5956   88.8291   10.2151 O.3     1  UNL1       -0.4684
     21 C          59.6904   89.5452   11.5297 C.3     1  UNL1        0.2526
     22 O          59.6956   87.6433    7.4612 O.3     1  UNL1       -0.4724
     23 C          59.3115   89.7849    6.0413 C.3     1  UNL1        0.0512
     24 C          59.5031   89.1285    7.3763 C.3     1  UNL1        0.2057
     25 C          65.0693   91.4344   14.1943 C.3     1  UNL1        0.1612
     26 C          66.0012   92.0665   13.2035 C.2     1  UNL1        0.3165
     27 O          67.4838   91.8933   13.3521 O.2     1  UNL1       -0.2465
     28 N          65.4507   92.8719   12.0641 N.am    1  UNL1       -0.1709
     29 H          64.4776   92.9855   11.9666 H       1  UNL1        0.3011
     30 C          66.3826   93.5040   11.0732 C.2     1  UNL1        0.3352
     31 N          67.5469   92.8338   10.4059 N.2     1  UNL1        0.0754
     32 N          68.1977   93.8330    9.4959 N.2     1  UNL1       -0.0428
     33 C          67.4357   95.1208    9.6009 C.2     1  UNL1        0.0944
     34 C          66.3139   94.9175   10.5757 C.3     1  UNL1        0.1480
     35 C          65.3012   95.9469   10.9817 C.3     1  UNL1        0.0190
     36 C          67.7418   96.3892    8.8609 C.3     1  UNL1        0.0459
     37 C          66.8320   96.8552    7.7632 C.3     1  UNL1        0.0065
@<TRIPOS>BOND
     1    23    24    1
     2    24    22    1
     3    22    10    1
     4    10    11   ar
     5    11    12   ar
     6    12    13   ar
     7    13    14   ar
     8    14    15   ar
     9    15    16   ar
    10    16     9    1
    11     9     1    1
    12     1     2   ar
    13     2     3   ar
    14     3     4   ar
    15     4    25    1
    16    25    26    1
    17    26    27    2
    18    26    28   am
    19    28    30    1
    20    30    31    2
    21    31    32    1
    22    32    33    2
    23    33    36    1
    24    36    37    1
    25    33    34    1
    26    34    35    1
    27     4     5   ar
    28     5     7    1
    29     7     8    1
    30     5     6   ar
    31    16    17   ar
    32    17    18   ar
    33    18    19   ar
    34    19    20    1
    35    20    21    1
    36    19    10   ar
    37    17    12   ar
    38     6     1   ar
    39    34    30    1
    40    28    29    1
@<TRIPOS>MOLECULE
*****
 37 40 0 0 0
SMALL
GASTEIGER

@<TRIPOS>ATOM
      1 C          62.6952   88.3756   12.2196 C.ar    1  UNL1        0.1674
      2 C          63.5286   88.0566   13.4254 C.ar    1  UNL1        0.1360
      3 N          64.4431   89.0967   14.0015 N.ar    1  UNL1       -0.2413
      4 C          64.5242   90.4558   13.3719 C.ar    1  UNL1        0.1046
      5 C          63.6909   90.7747   12.1662 C.ar    1  UNL1        0.1558
      6 C          62.7763   89.7346   11.5900 C.ar    1  UNL1        0.0772
      7 O          63.7720   92.1338   11.5366 O.3     1  UNL1       -0.4701
      8 C          63.5900   92.2863   10.0555 C.3     1  UNL1        0.2525
      9 O          61.7807   87.3355   11.6435 O.3     1  UNL1       -0.4517
     10 C          63.4782   82.3197   12.7436 C.ar    1  UNL1        0.1737
     11 C          63.6611   82.5062   11.2665 C.ar    1  UNL1        0.0592
     12 C          63.2824   83.8068   10.6222 C.ar    1  UNL1        0.0875
     13 N          63.4653   83.9933    9.1451 N.ar    1  UNL1       -0.2435
     14 C          63.0866   85.2938    8.5009 C.ar    1  UNL1        0.1020
     15 C          62.5251   86.4079    9.3337 C.ar    1  UNL1        0.0581
     16 C          62.3422   86.2214   10.8107 C.ar    1  UNL1        0.1484
     17 C          62.7209   84.9209   11.4550 C.ar    1  UNL1        0.0554
     18 C          62.5381   84.7343   12.9321 C.ar    1  UNL1        0.0446
     19 C          62.9167   83.4338   13.5764 C.ar    1  UNL1        0.1726
     20 O          62.7339   83.2473   15.0535 O.3     1  UNL1       -0.4684
     21 C          62.6008   84.4428   15.9496 C.3     1  UNL1        0.2526
     22 O          63.8569   81.0191   13.3879 O.3     1  UNL1       -0.4724
     23 C          61.3956   80.3565   13.8909 C.3     1  UNL1        0.0512
     24 C          62.8161   79.9627   13.6132 C.3     1  UNL1        0.2057
     25 C          65.4388   91.4959   13.9480 C.3     1  UNL1        0.1612
     26 C          66.1934   92.4184   13.0374 C.2     1  UNL1        0.3165
     27 O          66.7466   93.7082   13.5670 O.2     1  UNL1       -0.2465
     28 N          66.3949   92.0512   11.5971 N.am    1  UNL1       -0.1709
     29 H          66.0319   91.2047   11.2495 H       1  UNL1        0.3011
     30 C          67.1496   92.9738   10.6864 C.2     1  UNL1        0.3352
     31 N          68.4628   92.6792   10.0239 N.2     1  UNL1        0.0754
     32 N          68.8483   93.8762    9.2063 N.2     1  UNL1       -0.0428
     33 C          67.7735   94.9107    9.3636 C.2     1  UNL1        0.0944
     34 C          66.7236   94.3529   10.2783 C.3     1  UNL1        0.1480
     35 C          65.4681   95.0516   10.7092 C.3     1  UNL1        0.0190
     36 C          67.7522   96.2651    8.7192 C.3     1  UNL1        0.0459
     37 C          66.6619   96.6181    7.7514 C.3     1  UNL1        0.0065
@<TRIPOS>BOND
     1    23    24    1
     2    24    22    1
     3    22    10    1
     4    10    11   ar
     5    11    12   ar
     6    12    13   ar
     7    13    14   ar
     8    14    15   ar
     9    15    16   ar
    10    16     9    1
    11     9     1    1
    12     1     2   ar
    13     2     3   ar
    14     3     4   ar
    15     4    25    1
    16    25    26    1
    17    26    27    2
    18    26    28   am
    19    28    30    1
    20    30    31    2
    21    31    32    1
    22    32    33    2
    23    33    36    1
    24    36    37    1
    25    33    34    1
    26    34    35    1
    27     4     5   ar
    28     5     7    1
    29     7     8    1
    30     5     6   ar
    31    16    17   ar
    32    17    18   ar
    33    18    19   ar
    34    19    20    1
    35    20    21    1
    36    19    10   ar
    37    17    12   ar
    38     6     1   ar
    39    34    30    1
    40    28    29    1
@<TRIPOS>MOLECULE
*****
 37 40 0 0 0
SMALL
GASTEIGER

@<TRIPOS>ATOM
      1 C          63.2386   85.1703   14.4594 C.ar    1  UNL1        0.1674
      2 C          64.0017   86.3158   13.8630 C.ar    1  UNL1        0.1360
      3 N          64.0652   87.6303   14.5826 N.ar    1  UNL1       -0.2413
      4 C          63.3657   87.7995   15.8987 C.ar    1  UNL1        0.1046
      5 C          62.6026   86.6541   16.4951 C.ar    1  UNL1        0.1558
      6 C          62.5391   85.3395   15.7755 C.ar    1  UNL1        0.0772
      7 O          61.9031   86.8233   17.8112 O.3     1  UNL1       -0.4701
      8 C          62.6986   86.8784   19.0817 C.3     1  UNL1        0.2525
      9 O          63.1751   83.8557   13.7398 O.3     1  UNL1       -0.4517
     10 C          61.5394   86.8471    9.5415 C.ar    1  UNL1        0.1737
     11 C          62.4153   85.7719    8.9700 C.ar    1  UNL1        0.0592
     12 C          63.0432   84.7552    9.8767 C.ar    1  UNL1        0.0875
     13 N          63.9191   83.6800    9.3052 N.ar    1  UNL1       -0.2435
     14 C          64.5470   82.6633   10.2119 C.ar    1  UNL1        0.1020
     15 C          64.2990   82.7219   11.6901 C.ar    1  UNL1        0.0581
     16 C          63.4231   83.7972   12.2616 C.ar    1  UNL1        0.1484
     17 C          62.7952   84.8138   11.3549 C.ar    1  UNL1        0.0554
     18 C          61.9193   85.8891   11.9264 C.ar    1  UNL1        0.0446
     19 C          61.2914   86.9057   11.0197 C.ar    1  UNL1        0.1726
     20 O          60.4154   87.9810   11.5912 O.3     1  UNL1       -0.4684
     21 C          60.8823   89.4065   11.5931 C.3     1  UNL1        0.2526
     22 O          60.9115   87.8638    8.6348 O.3     1  UNL1       -0.4724
     23 C          58.9831   86.4093    7.6778 C.3     1  UNL1        0.0512
     24 C          59.4767   87.7167    8.2227 C.3     1  UNL1        0.2057
     25 C          63.4292   89.1141   16.6183 C.3     1  UNL1        0.1612
     26 C          63.9579   90.3291   15.9153 C.2     1  UNL1        0.3165
     27 O          63.4034   91.6844   16.2404 O.2     1  UNL1       -0.2465
     28 N          65.0411   90.1889   14.8872 N.am    1  UNL1       -0.1709
     29 H          65.4050   89.2993   14.6739 H       1  UNL1        0.3011
     30 C          65.5698   91.4039   14.1842 C.2     1  UNL1        0.3352
     31 N          66.6465   92.3171   14.6909 N.2     1  UNL1        0.0754
     32 N          66.8567   93.3966   13.6709 N.2     1  UNL1       -0.0428
     33 C          65.9099   93.1506   12.5337 C.2     1  UNL1        0.0944
     34 C          65.1146   91.9190   12.8510 C.3     1  UNL1        0.1480
     35 C          64.0508   91.3095   11.9867 C.3     1  UNL1        0.0190
     36 C          65.7812   93.9890   11.2966 C.3     1  UNL1        0.0459
     37 C          66.6338   93.6936   10.0984 C.3     1  UNL1        0.0065
@<TRIPOS>BOND
     1    23    24    1
     2    24    22    1
     3    22    10    1
     4    10    11   ar
     5    11    12   ar
     6    12    13   ar
     7    13    14   ar
     8    14    15   ar
     9    15    16   ar
    10    16     9    1
    11     9     1    1
    12     1     2   ar
    13     2     3   ar
    14     3     4   ar
    15     4    25    1
    16    25    26    1
    17    26    27    2
    18    26    28   am
    19    28    30    1
    20    30    31    2
    21    31    32    1
    22    32    33    2
    23    33    36    1
    24    36    37    1
    25    33    34    1
    26    34    35    1
    27     4     5   ar
    28     5     7    1
    29     7     8    1
    30     5     6   ar
    31    16    17   ar
    32    17    18   ar
    33    18    19   ar
    34    19    20    1
    35    20    21    1
    36    19    10   ar
    37    17    12   ar
    38     6     1   ar
    39    34    30    1
    40    28    29    1
@<TRIPOS>MOLECULE
*****
 37 40 0 0 0
SMALL
GASTEIGER

@<TRIPOS>ATOM
      1 C          63.2725   91.3055   10.8678 C.ar    1  UNL1        0.1674
      2 C          63.0370   90.7207   12.2289 C.ar    1  UNL1        0.1360
      3 N          62.1693   89.5070   12.3839 N.ar    1  UNL1       -0.2413
      4 C          61.5371   88.8781   11.1778 C.ar    1  UNL1        0.1046
      5 C          61.7725   89.4628    9.8167 C.ar    1  UNL1        0.1558
      6 C          62.6402   90.6766    9.6616 C.ar    1  UNL1        0.0772
      7 O          61.1402   88.8339    8.6106 O.3     1  UNL1       -0.4701
      8 C          59.7054   89.1208    8.2804 C.3     1  UNL1        0.2525
      9 O          64.1401   92.5192   10.7128 O.3     1  UNL1       -0.4517
     10 C          67.5257   92.0534   14.9046 C.ar    1  UNL1        0.1737
     11 C          68.3835   92.0458   13.6741 C.ar    1  UNL1        0.0592
     12 C          67.7516   92.1603   12.3185 C.ar    1  UNL1        0.0875
     13 N          68.6095   92.1527   11.0881 N.ar    1  UNL1       -0.2435
     14 C          67.9775   92.2673    9.7326 C.ar    1  UNL1        0.1020
     15 C          66.4878   92.3894    9.6075 C.ar    1  UNL1        0.0581
     16 C          65.6299   92.3970   10.8379 C.ar    1  UNL1        0.1484
     17 C          66.2618   92.2825   12.1934 C.ar    1  UNL1        0.0554
     18 C          65.4040   92.2901   13.4239 C.ar    1  UNL1        0.0446
     19 C          66.0359   92.1755   14.7795 C.ar    1  UNL1        0.1726
     20 O          65.1781   92.1831   16.0100 O.3     1  UNL1       -0.4684
     21 C          64.0350   91.2196   16.1333 C.3     1  UNL1        0.2526
     22 O          68.1576   91.9388   16.2602 O.3     1  UNL1       -0.4724
     23 C          69.2060   94.3146   16.1791 C.3     1  UNL1        0.0512
     24 C          69.2376   92.8967   16.6676 C.3     1  UNL1        0.2057
     25 C          60.6694   87.6643   11.3328 C.3     1  UNL1        0.1612
     26 C          61.2665   86.2942   11.2053 C.2     1  UNL1        0.3165
     27 O          61.0032   85.4725    9.9784 O.2     1  UNL1       -0.2465
     28 N          62.1269   85.7459   12.3049 N.am    1  UNL1       -0.1709
     29 H          62.2996   86.2852   13.1102 H       1  UNL1        0.3011
     30 C          62.7240   84.3757   12.1774 C.2     1  UNL1        0.3352
     31 N          63.4530   83.8394   10.9812 N.2     1  UNL1        0.0754
     32 N          63.8765   82.4336   11.2884 N.2     1  UNL1       -0.0428
     33 C          63.4094   82.1011   12.6745 C.2     1  UNL1        0.0944
     34 C          62.6971   83.3014   13.2239 C.3     1  UNL1        0.1480
     35 C          62.0682   83.4086   14.5816 C.3     1  UNL1        0.0190
     36 C          63.6179   80.7972   13.3861 C.3     1  UNL1        0.0459
     37 C          62.4906   79.8137   13.4952 C.3     1  UNL1        0.0065
@<TRIPOS>BOND
     1    23    24    1
     2    24    22    1
     3    22    10    1
     4    10    11   ar
     5    11    12   ar
     6    12    13   ar
     7    13    14   ar
     8    14    15   ar
     9    15    16   ar
    10    16     9    1
    11     9     1    1
    12     1     2   ar
    13     2     3   ar
    14     3     4   ar
    15     4    25    1
    16    25    26    1
    17    26    27    2
    18    26    28   am
    19    28    30    1
    20    30    31    2
    21    31    32    1
    22    32    33    2
    23    33    36    1
    24    36    37    1
    25    33    34    1
    26    34    35    1
    27     4     5   ar
    28     5     7    1
    29     7     8    1
    30     5     6   ar
    31    16    17   ar
    32    17    18   ar
    33    18    19   ar
    34    19    20    1
    35    20    21    1
    36    19    10   ar
    37    17    12   ar
    38     6     1   ar
    39    34    30    1
    40    28    29    1
