@<TRIPOS>MOLECULE
*****
 24 26 0 0 0
SMALL
GASTEIGER

@<TRIPOS>ATOM
      1 C          62.7786   89.8555   11.9839 C.ar    1  UNL1        0.0759
      2 C          63.2596   89.2654   13.2763 C.ar    1  UNL1        0.0168
      3 C          64.4020   89.9011   14.0117 C.ar    1  UNL1        0.0014
      4 C          65.0633   91.1268   13.4547 C.ar    1  UNL1        0.0023
      5 C          64.5823   91.7168   12.1623 C.ar    1  UNL1        0.0309
      6 C          63.4400   91.0812   11.4269 C.ar    1  UNL1        0.1533
      7 F          62.9589   91.6712   10.1343 F       1  UNL1       -0.2029
      8 C          66.2058   91.7624   14.1902 C.ar    1  UNL1        0.0002
      9 C          67.5586   91.8446   13.5475 C.ar    1  UNL1        0.0023
     10 C          68.7010   92.4803   14.2829 C.ar    1  UNL1        0.0296
     11 C          68.4906   93.0337   15.6612 C.ar    1  UNL1        0.1401
     12 F          69.6329   93.6693   16.3966 F       1  UNL1       -0.2042
     13 C          67.1377   92.9514   16.3039 C.ar    1  UNL1        0.0296
     14 C          65.9953   92.3158   15.5684 C.ar    1  UNL1        0.0023
     15 N          61.6361   89.2198   11.2484 N.pl3   1  UNL1       -0.3006
     16 C          59.4511   90.6122   11.4413 C.3     1  UNL1        0.0232
     17 C          60.2352   89.3741   11.7616 C.3     1  UNL1        0.0913
     18 C          61.8948   88.4300    9.9997 C.3     1  UNL1        0.1366
     19 C          60.7776   88.1665    9.0340 C.ar    1  UNL1        0.0745
     20 C          60.1281   86.8389    8.7781 C.ar    1  UNL1        0.1148
     21 N          59.0629   87.0362    7.7406 N.ar    1  UNL1       -0.2228
     22 C          59.0541   88.4859    7.3553 C.ar    1  UNL1        0.1748
     23 N          60.1139   89.1844    8.1547 N.ar    1  UNL1       -0.3369
     24 H          60.3350   90.1428    8.1101 H       1  UNL1        0.1672
@<TRIPOS>BOND
     1    16    17    1
     2    17    15    1
     3    15    18    1
     4    18    19    1
     5    19    20   ar
     6    20    21   ar
     7    21    22   ar
     8    22    23   ar
     9    15     1    1
    10     1     2   ar
    11     2     3   ar
    12     3     4   ar
    13     4     8    1
    14     8     9   ar
    15     9    10   ar
    16    10    11   ar
    17    11    12    1
    18    11    13   ar
    19    13    14   ar
    20     4     5   ar
    21     5     6   ar
    22     6     7    1
    23    23    19   ar
    24     6     1   ar
    25    14     8   ar
    26    23    24    1
@<TRIPOS>MOLECULE
*****
 24 26 0 0 0
SMALL
GASTEIGER

@<TRIPOS>ATOM
      1 C          64.4731   91.4307   12.2222 C.ar    1  UNL1        0.0759
      2 C          64.0352   91.8120   10.8392 C.ar    1  UNL1        0.0168
      3 C          63.1105   90.9147   10.0712 C.ar    1  UNL1        0.0014
      4 C          62.6237   89.6361   10.6863 C.ar    1  UNL1        0.0023
      5 C          63.0616   89.2549   12.0694 C.ar    1  UNL1        0.0309
      6 C          63.9863   90.1522   12.8373 C.ar    1  UNL1        0.1533
      7 F          64.4242   89.7710   14.2205 F       1  UNL1       -0.2029
      8 C          61.6990   88.7388    9.9183 C.ar    1  UNL1        0.0002
      9 C          61.8936   87.2520    9.9563 C.ar    1  UNL1        0.0023
     10 C          60.9689   86.3546    9.1883 C.ar    1  UNL1        0.0296
     11 C          59.8496   86.9442    8.3823 C.ar    1  UNL1        0.1401
     12 F          58.9249   86.0470    7.6143 F       1  UNL1       -0.2042
     13 C          59.6550   88.4311    8.3444 C.ar    1  UNL1        0.0296
     14 C          60.5797   89.3283    9.1124 C.ar    1  UNL1        0.0023
     15 N          65.3978   92.3281   12.9902 N.pl3   1  UNL1       -0.3006
     16 C          67.1363   91.6214   14.7869 C.3     1  UNL1        0.0232
     17 C          65.7361   92.0120   14.4170 C.3     1  UNL1        0.0913
     18 C          65.9841   93.5414   12.3314 C.3     1  UNL1        0.1366
     19 C          66.8719   93.3884   11.1321 C.ar    1  UNL1        0.0745
     20 C          66.9061   94.2966    9.9388 C.ar    1  UNL1        0.1148
     21 N          67.9367   93.7699    8.9847 N.ar    1  UNL1       -0.2228
     22 C          68.5395   92.5360    9.5884 C.ar    1  UNL1        0.1748
     23 N          67.8814   92.3003   10.9156 N.ar    1  UNL1       -0.3369
     24 H          68.0776   91.5612   11.5356 H       1  UNL1        0.1672
@<TRIPOS>BOND
     1    16    17    1
     2    17    15    1
     3    15    18    1
     4    18    19    1
     5    19    20   ar
     6    20    21   ar
     7    21    22   ar
     8    22    23   ar
     9    15     1    1
    10     1     2   ar
    11     2     3   ar
    12     3     4   ar
    13     4     8    1
    14     8     9   ar
    15     9    10   ar
    16    10    11   ar
    17    11    12    1
    18    11    13   ar
    19    13    14   ar
    20     4     5   ar
    21     5     6   ar
    22     6     7    1
    23    23    19   ar
    24     6     1   ar
    25    14     8   ar
    26    23    24    1
@<TRIPOS>MOLECULE
*****
 24 26 0 0 0
SMALL
GASTEIGER

@<TRIPOS>ATOM
      1 C          62.6123   90.2553   11.6634 C.ar    1  UNL1        0.0759
      2 C          62.8782   89.7214   13.0396 C.ar    1  UNL1        0.0168
      3 C          64.0356   90.2457   13.8367 C.ar    1  UNL1        0.0014
      4 C          64.9271   91.3040   13.2576 C.ar    1  UNL1        0.0023
      5 C          64.6611   91.8379   11.8813 C.ar    1  UNL1        0.0309
      6 C          63.5037   91.3136   11.0842 C.ar    1  UNL1        0.1533
      7 F          63.2377   91.8475    9.7079 F       1  UNL1       -0.2029
      8 C          66.0845   91.8283   14.0548 C.ar    1  UNL1        0.0002
      9 C          67.4531   91.8828   13.4432 C.ar    1  UNL1        0.0023
     10 C          68.6105   92.4072   14.2404 C.ar    1  UNL1        0.0296
     11 C          68.3993   92.8770   15.6491 C.ar    1  UNL1        0.1401
     12 F          69.5567   93.4013   16.4463 F       1  UNL1       -0.2042
     13 C          67.0307   92.8225   16.2607 C.ar    1  UNL1        0.0296
     14 C          65.8734   92.2982   15.4636 C.ar    1  UNL1        0.0023
     15 N          61.4548   89.7309   10.8662 N.pl3   1  UNL1       -0.3006
     16 C          59.2443   89.5877   12.2239 C.3     1  UNL1        0.0232
     17 C          60.0667   90.2267   11.1443 C.3     1  UNL1        0.0913
     18 C          61.6856   88.7108    9.7909 C.3     1  UNL1        0.1366
     19 C          61.9666   87.2840   10.1586 C.ar    1  UNL1        0.0745
     20 C          62.4823   86.2207    9.2348 C.ar    1  UNL1        0.1148
     21 N          62.6157   84.9495   10.0199 N.ar    1  UNL1       -0.2228
     22 C          62.1823   85.2272   11.4288 C.ar    1  UNL1        0.1748
     23 N          61.7812   86.6700   11.5145 N.ar    1  UNL1       -0.3369
     24 H          61.4537   87.1328   12.3194 H       1  UNL1        0.1672
@<TRIPOS>BOND
     1    16    17    1
     2    17    15    1
     3    15    18    1
     4    18    19    1
     5    19    20   ar
     6    20    21   ar
     7    21    22   ar
     8    22    23   ar
     9    15     1    1
    10     1     2   ar
    11     2     3   ar
    12     3     4   ar
    13     4     8    1
    14     8     9   ar
    15     9    10   ar
    16    10    11   ar
    17    11    12    1
    18    11    13   ar
    19    13    14   ar
    20     4     5   ar
    21     5     6   ar
    22     6     7    1
    23    23    19   ar
    24     6     1   ar
    25    14     8   ar
    26    23    24    1
@<TRIPOS>MOLECULE
*****
 24 26 0 0 0
SMALL
GASTEIGER

@<TRIPOS>ATOM
      1 C          64.4239   91.3835   12.1949 C.ar    1  UNL1        0.0759
      2 C          63.9624   90.0936   12.8057 C.ar    1  UNL1        0.0168
      3 C          63.0503   89.1840   12.0372 C.ar    1  UNL1        0.0014
      4 C          62.5998   89.5642   10.6579 C.ar    1  UNL1        0.0023
      5 C          63.0614   90.8541   10.0471 C.ar    1  UNL1        0.0309
      6 C          63.9734   91.7637   10.8156 C.ar    1  UNL1        0.1533
      7 F          64.4351   93.0537   10.2048 F       1  UNL1       -0.2029
      8 C          61.6877   88.6545    9.8893 C.ar    1  UNL1        0.0002
      9 C          61.9062   87.1709    9.9223 C.ar    1  UNL1        0.0023
     10 C          60.9941   86.2612    9.1538 C.ar    1  UNL1        0.0296
     11 C          59.8635   86.8351    8.3523 C.ar    1  UNL1        0.1401
     12 F          58.9514   85.9255    7.5838 F       1  UNL1       -0.2042
     13 C          59.6450   88.3188    8.3194 C.ar    1  UNL1        0.0296
     14 C          60.5571   89.2285    9.0879 C.ar    1  UNL1        0.0023
     15 N          65.3360   92.2932   12.9634 N.pl3   1  UNL1       -0.3006
     16 C          67.1485   91.5731   14.6800 C.3     1  UNL1        0.0232
     17 C          65.7297   91.9478   14.3690 C.3     1  UNL1        0.0913
     18 C          65.8545   93.5483   12.3263 C.3     1  UNL1        0.1366
     19 C          66.9096   93.4691   11.2631 C.ar    1  UNL1        0.0745
     20 C          67.2813   94.5631   10.3066 C.ar    1  UNL1        0.1148
     21 N          68.3798   94.0522    9.4221 N.ar    1  UNL1       -0.2228
     22 C          68.6870   92.6423    9.8321 C.ar    1  UNL1        0.1748
     23 N          67.7784   92.2820   10.9699 N.ar    1  UNL1       -0.3369
     24 H          67.7562   91.4181   11.4415 H       1  UNL1        0.1672
@<TRIPOS>BOND
     1    16    17    1
     2    17    15    1
     3    15    18    1
     4    18    19    1
     5    19    20   ar
     6    20    21   ar
     7    21    22   ar
     8    22    23   ar
     9    15     1    1
    10     1     2   ar
    11     2     3   ar
    12     3     4   ar
    13     4     8    1
    14     8     9   ar
    15     9    10   ar
    16    10    11   ar
    17    11    12    1
    18    11    13   ar
    19    13    14   ar
    20     4     5   ar
    21     5     6   ar
    22     6     7    1
    23    23    19   ar
    24     6     1   ar
    25    14     8   ar
    26    23    24    1
@<TRIPOS>MOLECULE
*****
 24 26 0 0 0
SMALL
GASTEIGER

@<TRIPOS>ATOM
      1 C          63.1674   88.7007   12.4650 C.ar    1  UNL1        0.0759
      2 C          62.4246   88.0145   11.3571 C.ar    1  UNL1        0.0168
      3 C          62.3613   86.5166   11.3120 C.ar    1  UNL1        0.0014
      4 C          63.0408   85.7048   12.3747 C.ar    1  UNL1        0.0023
      5 C          63.7836   86.3910   13.4825 C.ar    1  UNL1        0.0309
      6 C          63.8469   87.8890   13.5277 C.ar    1  UNL1        0.1533
      7 F          64.5897   88.5753   14.6356 F       1  UNL1       -0.2029
      8 C          62.9775   84.2068   12.3295 C.ar    1  UNL1        0.0002
      9 C          62.5002   83.4398   13.5269 C.ar    1  UNL1        0.0023
     10 C          62.4369   81.9418   13.4817 C.ar    1  UNL1        0.0296
     11 C          62.8510   81.2108   12.2391 C.ar    1  UNL1        0.1401
     12 F          62.7877   79.7129   12.1938 F       1  UNL1       -0.2042
     13 C          63.3283   81.9778   11.0416 C.ar    1  UNL1        0.0296
     14 C          63.3916   83.4758   11.0868 C.ar    1  UNL1        0.0023
     15 N          63.2307   90.1988   12.5102 N.pl3   1  UNL1       -0.3006
     16 C          63.4454   91.2484   10.1433 C.3     1  UNL1        0.0232
     17 C          62.6471   91.0082   11.3903 C.3     1  UNL1        0.0913
     18 C          63.8776   90.8873   13.6753 C.3     1  UNL1        0.1366
     19 C          65.2229   91.5307   13.5137 C.ar    1  UNL1        0.0745
     20 C          65.5595   92.6446   12.5671 C.ar    1  UNL1        0.1148
     21 N          67.0124   92.9756   12.7386 N.ar    1  UNL1       -0.2228
     22 C          67.5738   92.0662   13.7913 C.ar    1  UNL1        0.1748
     23 N          66.4678   91.1732   14.2702 N.ar    1  UNL1       -0.3369
     24 H          66.5453   90.4751   14.9600 H       1  UNL1        0.1672
@<TRIPOS>BOND
     1    16    17    1
     2    17    15    1
     3    15    18    1
     4    18    19    1
     5    19    20   ar
     6    20    21   ar
     7    21    22   ar
     8    22    23   ar
     9    15     1    1
    10     1     2   ar
    11     2     3   ar
    12     3     4   ar
    13     4     8    1
    14     8     9   ar
    15     9    10   ar
    16    10    11   ar
    17    11    12    1
    18    11    13   ar
    19    13    14   ar
    20     4     5   ar
    21     5     6   ar
    22     6     7    1
    23    23    19   ar
    24     6     1   ar
    25    14     8   ar
    26    23    24    1
@<TRIPOS>MOLECULE
*****
 24 26 0 0 0
SMALL
GASTEIGER

@<TRIPOS>ATOM
      1 C          62.7837   89.6969   11.9710 C.ar    1  UNL1        0.0759
      2 C          63.1357   91.1236   11.6703 C.ar    1  UNL1        0.0168
      3 C          64.2574   91.7911   12.4093 C.ar    1  UNL1        0.0014
      4 C          65.0272   91.0318   13.4490 C.ar    1  UNL1        0.0023
      5 C          64.6752   89.6051   13.7497 C.ar    1  UNL1        0.0309
      6 C          63.5534   88.9376   13.0107 C.ar    1  UNL1        0.1533
      7 F          63.2014   87.5108   13.3114 F       1  UNL1       -0.2029
      8 C          66.1490   91.6994   14.1880 C.ar    1  UNL1        0.0002
      9 C          65.9159   92.2562   15.5611 C.ar    1  UNL1        0.0023
     10 C          67.0377   92.9238   16.3001 C.ar    1  UNL1        0.0296
     11 C          68.3925   93.0344   15.6659 C.ar    1  UNL1        0.1401
     12 F          69.5143   93.7019   16.4048 F       1  UNL1       -0.2042
     13 C          68.6256   92.4774   14.2927 C.ar    1  UNL1        0.0296
     14 C          67.5038   91.8100   13.5538 C.ar    1  UNL1        0.0023
     15 N          61.6619   89.0294   11.2320 N.pl3   1  UNL1       -0.3006
     16 C          59.4786   90.4096   11.5124 C.3     1  UNL1        0.0232
     17 C          60.2552   89.1464   11.7393 C.3     1  UNL1        0.0913
     18 C          61.9469   88.2449    9.9857 C.3     1  UNL1        0.1366
     19 C          60.8291   87.8910    9.0501 C.ar    1  UNL1        0.0745
     20 C          60.0500   88.8534    8.2034 C.ar    1  UNL1        0.1148
     21 N          59.0335   88.0699    7.4269 N.ar    1  UNL1       -0.2228
     22 C          59.1844   86.6233    7.7938 C.ar    1  UNL1        0.1748
     23 N          60.2941   86.5128    8.7970 N.ar    1  UNL1       -0.3369
     24 H          60.6150   85.6815    9.2157 H       1  UNL1        0.1672
@<TRIPOS>BOND
     1    16    17    1
     2    17    15    1
     3    15    18    1
     4    18    19    1
     5    19    20   ar
     6    20    21   ar
     7    21    22   ar
     8    22    23   ar
     9    15     1    1
    10     1     2   ar
    11     2     3   ar
    12     3     4   ar
    13     4     8    1
    14     8     9   ar
    15     9    10   ar
    16    10    11   ar
    17    11    12    1
    18    11    13   ar
    19    13    14   ar
    20     4     5   ar
    21     5     6   ar
    22     6     7    1
    23    23    19   ar
    24     6     1   ar
    25    14     8   ar
    26    23    24    1
@<TRIPOS>MOLECULE
*****
 24 26 0 0 0
SMALL
GASTEIGER

@<TRIPOS>ATOM
      1 C          61.7048   89.2297   10.2724 C.ar    1  UNL1        0.0759
      2 C          62.1169   90.6311    9.9314 C.ar    1  UNL1        0.0168
      3 C          63.1235   91.3452   10.7838 C.ar    1  UNL1        0.0014
      4 C          63.7181   90.6580   11.9772 C.ar    1  UNL1        0.0023
      5 C          63.3061   89.2566   12.3182 C.ar    1  UNL1        0.0309
      6 C          62.2994   88.5425   11.4658 C.ar    1  UNL1        0.1533
      7 F          61.8874   87.1410   11.8068 F       1  UNL1       -0.2029
      8 C          64.7249   91.3722   12.8296 C.ar    1  UNL1        0.0002
      9 C          65.0871   90.8264   14.1790 C.ar    1  UNL1        0.0023
     10 C          66.0938   91.5406   15.0313 C.ar    1  UNL1        0.0296
     11 C          66.7382   92.8006   14.5343 C.ar    1  UNL1        0.1401
     12 F          67.7449   93.5149   15.3866 F       1  UNL1       -0.2042
     13 C          66.3760   93.3464   13.1848 C.ar    1  UNL1        0.0296
     14 C          65.3693   92.6322   12.3325 C.ar    1  UNL1        0.0023
     15 N          60.6981   88.5155    9.4200 N.pl3   1  UNL1       -0.3006
     16 C          59.3555   88.6427    7.1994 C.3     1  UNL1        0.0232
     17 C          59.8423   89.2899    8.4621 C.3     1  UNL1        0.0913
     18 C          60.5473   87.0268    9.5257 C.3     1  UNL1        0.1366
     19 C          61.2621   86.1301    8.5589 C.ar    1  UNL1        0.0745
     20 C          62.6938   85.6928    8.6551 C.ar    1  UNL1        0.1148
     21 N          62.9873   84.8056    7.4818 N.ar    1  UNL1       -0.2228
     22 C          61.7370   84.6945    6.6604 C.ar    1  UNL1        0.1748
     23 N          60.6708   85.5131    7.3261 N.ar    1  UNL1       -0.3369
     24 H          59.7455   85.6257    7.0095 H       1  UNL1        0.1672
@<TRIPOS>BOND
     1    16    17    1
     2    17    15    1
     3    15    18    1
     4    18    19    1
     5    19    20   ar
     6    20    21   ar
     7    21    22   ar
     8    22    23   ar
     9    15     1    1
    10     1     2   ar
    11     2     3   ar
    12     3     4   ar
    13     4     8    1
    14     8     9   ar
    15     9    10   ar
    16    10    11   ar
    17    11    12    1
    18    11    13   ar
    19    13    14   ar
    20     4     5   ar
    21     5     6   ar
    22     6     7    1
    23    23    19   ar
    24     6     1   ar
    25    14     8   ar
    26    23    24    1
@<TRIPOS>MOLECULE
*****
 24 26 0 0 0
SMALL
GASTEIGER

@<TRIPOS>ATOM
      1 C          61.0893   87.8170    9.7570 C.ar    1  UNL1        0.0759
      2 C          62.0966   86.9716    9.0357 C.ar    1  UNL1        0.0168
      3 C          62.6618   85.7499    9.6973 C.ar    1  UNL1        0.0014
      4 C          62.2197   85.3736   11.0804 C.ar    1  UNL1        0.0023
      5 C          61.2123   86.2190   11.8018 C.ar    1  UNL1        0.0309
      6 C          60.6471   87.4407   11.1401 C.ar    1  UNL1        0.1533
      7 F          59.6396   88.2862   11.8615 F       1  UNL1       -0.2029
      8 C          62.7849   84.1518   11.7421 C.ar    1  UNL1        0.0002
      9 C          63.4911   83.1134   10.9217 C.ar    1  UNL1        0.0023
     10 C          64.0563   81.8916   11.5834 C.ar    1  UNL1        0.0296
     11 C          63.9154   81.7083   13.0655 C.ar    1  UNL1        0.1401
     12 F          64.4806   80.4865   13.7272 F       1  UNL1       -0.2042
     13 C          63.2092   82.7467   13.8858 C.ar    1  UNL1        0.0296
     14 C          62.6440   83.9684   13.2242 C.ar    1  UNL1        0.0023
     15 N          60.5240   89.0388    9.0953 N.pl3   1  UNL1       -0.3006
     16 C          59.0049   87.6961    7.4707 C.3     1  UNL1        0.0232
     17 C          59.8174   88.9191    7.7777 C.3     1  UNL1        0.0913
     18 C          60.6654   90.3803    9.7514 C.3     1  UNL1        0.1366
     19 C          61.8831   90.6899   10.5707 C.ar    1  UNL1        0.0745
     20 C          63.1680   91.2685   10.0567 C.ar    1  UNL1        0.1148
     21 N          64.1087   91.4114   11.2162 N.ar    1  UNL1       -0.2228
     22 C          63.4052   90.9211   12.4470 C.ar    1  UNL1        0.1748
     23 N          62.0297   90.4752   12.0480 N.ar    1  UNL1       -0.3369
     24 H          61.3436   90.1064   12.6501 H       1  UNL1        0.1672
@<TRIPOS>BOND
     1    16    17    1
     2    17    15    1
     3    15    18    1
     4    18    19    1
     5    19    20   ar
     6    20    21   ar
     7    21    22   ar
     8    22    23   ar
     9    15     1    1
    10     1     2   ar
    11     2     3   ar
    12     3     4   ar
    13     4     8    1
    14     8     9   ar
    15     9    10   ar
    16    10    11   ar
    17    11    12    1
    18    11    13   ar
    19    13    14   ar
    20     4     5   ar
    21     5     6   ar
    22     6     7    1
    23    23    19   ar
    24     6     1   ar
    25    14     8   ar
    26    23    24    1
@<TRIPOS>MOLECULE
*****
 24 26 0 0 0
SMALL
GASTEIGER

@<TRIPOS>ATOM
      1 C          63.2633   84.1866   11.5997 C.ar    1  UNL1        0.0759
      2 C          63.5836   84.2773   10.1371 C.ar    1  UNL1        0.0168
      3 C          62.8008   85.2031    9.2540 C.ar    1  UNL1        0.0014
      4 C          61.6977   86.0383    9.8335 C.ar    1  UNL1        0.0023
      5 C          61.3775   85.9476   11.2960 C.ar    1  UNL1        0.0309
      6 C          62.1603   85.0217   12.1791 C.ar    1  UNL1        0.1533
      7 F          61.8401   84.9310   13.6418 F       1  UNL1       -0.2029
      8 C          60.9149   86.9642    8.9503 C.ar    1  UNL1        0.0002
      9 C          60.1173   86.4131    7.8056 C.ar    1  UNL1        0.0023
     10 C          59.3345   87.3391    6.9225 C.ar    1  UNL1        0.0296
     11 C          59.3493   88.8160    7.1840 C.ar    1  UNL1        0.1401
     12 F          58.5665   89.7419    6.3008 F       1  UNL1       -0.2042
     13 C          60.1469   89.3671    8.3287 C.ar    1  UNL1        0.0296
     14 C          60.9297   88.4412    9.2118 C.ar    1  UNL1        0.0023
     15 N          64.0462   83.2606   12.4829 N.pl3   1  UNL1       -0.3006
     16 C          62.8295   80.9684   12.6069 C.3     1  UNL1        0.0232
     17 C          64.0289   81.7834   12.2233 C.3     1  UNL1        0.0913
     18 C          64.8462   83.8121   13.6256 C.3     1  UNL1        0.1366
     19 C          64.1475   84.4083   14.8115 C.ar    1  UNL1        0.0745
     20 C          63.1114   83.7295   15.6576 C.ar    1  UNL1        0.1148
     21 N          62.6858   84.6897   16.7285 N.ar    1  UNL1       -0.2228
     22 C          63.4589   85.9619   16.5443 C.ar    1  UNL1        0.1748
     23 N          64.3622   85.7880   15.3595 N.ar    1  UNL1       -0.3369
     24 H          64.9865   86.4611   15.0040 H       1  UNL1        0.1672
@<TRIPOS>BOND
     1    16    17    1
     2    17    15    1
     3    15    18    1
     4    18    19    1
     5    19    20   ar
     6    20    21   ar
     7    21    22   ar
     8    22    23   ar
     9    15     1    1
    10     1     2   ar
    11     2     3   ar
    12     3     4   ar
    13     4     8    1
    14     8     9   ar
    15     9    10   ar
    16    10    11   ar
    17    11    12    1
    18    11    13   ar
    19    13    14   ar
    20     4     5   ar
    21     5     6   ar
    22     6     7    1
    23    23    19   ar
    24     6     1   ar
    25    14     8   ar
    26    23    24    1
