@<TRIPOS>MOLECULE
*****
 36 39 0 0 0
SMALL
GASTEIGER

@<TRIPOS>ATOM
      1 C          63.8456   89.3532   14.3692 C.ar    1  UNL1        0.2266
      2 C          64.9947   90.3081   14.5017 C.ar    1  UNL1        0.0617
      3 C          65.3148   91.2561   13.3842 C.ar    1  UNL1        0.0805
      4 C          64.4857   91.2491   12.1342 C.ar    1  UNL1        0.0590
      5 C          64.5613   92.0610   10.8751 C.ar    1  UNL1        0.1038
      6 N          63.4589   91.6078    9.9644 N.ar    1  UNL1       -0.1679
      7 N          62.7020   90.5158   10.6607 N.ar    1  UNL1       -0.2319
      8 C          61.5183   89.7755   10.1123 C.3     1  UNL1        0.1554
      9 C          63.3366   90.2942   12.0016 C.ar    1  UNL1        0.1639
     10 N          63.0165   89.3462   13.1191 N.ar    1  UNL1       -0.1928
     11 C          65.5634   93.1371   10.5787 C.ar    1  UNL1        0.0194
     12 C          66.8304   92.8017    9.8491 C.ar    1  UNL1        0.0016
     13 C          67.8325   93.8779    9.5528 C.ar    1  UNL1        0.0000
     14 C          67.5675   95.2893    9.9861 C.ar    1  UNL1        0.0000
     15 C          66.3005   95.6246   10.7156 C.ar    1  UNL1        0.0000
     16 C          65.2985   94.5485   11.0119 C.ar    1  UNL1        0.0016
     17 C          66.4639   92.2110   13.5167 C.3     1  UNL1        0.4189
     18 F          67.6130   93.1660   13.6492 F       1  UNL1       -0.1659
     19 F          65.6088   93.1253   14.3430 F       1  UNL1       -0.1659
     20 F          67.3190   91.2968   12.6903 F       1  UNL1       -0.1659
     21 O          63.5255   88.4051   15.4867 O.3     1  UNL1       -0.4501
     22 C          64.3973   87.2087   15.7282 C.3     1  UNL1        0.2910
     23 N          62.9039   85.5792   14.3628 N.am    1  UNL1       -0.2992
     24 C          64.2565   85.9912   14.8633 C.2     1  UNL1        0.2673
     25 O          65.4684   85.1859   14.4989 O.2     1  UNL1       -0.2711
     26 H          62.1085   86.1077   14.6019 H       1  UNL1        0.1498
     27 C          62.7631   84.3617   13.4979 C.3     1  UNL1        0.0942
     28 C          62.5416   83.0174   14.1255 C.3     1  UNL1        0.0262
     29 C          63.0054   84.7422    9.0206 C.ar    1  UNL1        0.1387
     30 C          62.1757   85.7097    9.8117 C.ar    1  UNL1        0.0366
     31 C          62.0950   85.5828   11.3042 C.ar    1  UNL1        0.0004
     32 C          62.8439   84.4886   12.0055 C.ar    1  UNL1       -0.0043
     33 C          63.6735   83.5212   11.2144 C.ar    1  UNL1        0.0004
     34 C          63.7542   83.6480    9.7219 C.ar    1  UNL1        0.0366
     35 C          61.8336   84.8329    6.7035 C.3     1  UNL1        0.2525
     36 O          63.0861   84.8690    7.5281 O.3     1  UNL1       -0.4714
@<TRIPOS>BOND
     1    35    36    1
     2    36    29    1
     3    29    30   ar
     4    30    31   ar
     5    31    32   ar
     6    32    27    1
     7    27    28    1
     8    27    23    1
     9    23    24   am
    10    24    25    2
    11    24    22    1
    12    22    21    1
    13    21     1    1
    14     1     2   ar
    15     2     3   ar
    16     3    17    1
    17    17    18    1
    18    17    19    1
    19    17    20    1
    20     3     4   ar
    21     4     5   ar
    22     5    11    1
    23    11    12   ar
    24    12    13   ar
    25    13    14   ar
    26    14    15   ar
    27    15    16   ar
    28     5     6   ar
    29     6     7   ar
    30     7     8    1
    31     7     9   ar
    32     9    10   ar
    33    32    33   ar
    34    33    34   ar
    35    34    29   ar
    36    10     1   ar
    37     9     4   ar
    38    16    11   ar
    39    23    26    1
@<TRIPOS>MOLECULE
*****
 36 39 0 0 0
SMALL
GASTEIGER

@<TRIPOS>ATOM
      1 C          63.8314   90.4322   15.3549 C.ar    1  UNL1        0.2266
      2 C          65.0880   91.2386   15.2115 C.ar    1  UNL1        0.0617
      3 C          65.4681   91.8036   13.8751 C.ar    1  UNL1        0.0805
      4 C          64.5916   91.5621   12.6819 C.ar    1  UNL1        0.0590
      5 C          64.7075   91.9890   11.2486 C.ar    1  UNL1        0.1038
      6 N          63.5225   91.4464   10.5061 N.ar    1  UNL1       -0.1679
      7 N          62.6742   90.6842   11.4806 N.ar    1  UNL1       -0.2319
      8 C          61.3906   89.9750   11.1657 C.3     1  UNL1        0.1554
      9 C          63.3350   90.7557   12.8253 C.ar    1  UNL1        0.1639
     10 N          62.9549   90.1908   14.1618 N.ar    1  UNL1       -0.1928
     11 C          65.8141   92.8137   10.6609 C.ar    1  UNL1        0.0194
     12 C          67.0482   92.1450   10.1319 C.ar    1  UNL1        0.0016
     13 C          68.1547   92.9697    9.5443 C.ar    1  UNL1        0.0000
     14 C          68.0272   94.4631    9.4856 C.ar    1  UNL1        0.0000
     15 C          66.7931   95.1319   10.0146 C.ar    1  UNL1        0.0000
     16 C          65.6866   94.3071   10.6022 C.ar    1  UNL1        0.0016
     17 C          66.7248   92.6100   13.7316 C.3     1  UNL1        0.4189
     18 F          67.9814   93.4165   13.5882 F       1  UNL1       -0.1659
     19 F          65.9578   93.8607   14.0438 F       1  UNL1       -0.1659
     20 F          67.4918   91.3594   13.4194 F       1  UNL1       -0.1659
     21 O          63.4511   89.8672   16.6915 O.3     1  UNL1       -0.4501
     22 C          62.6839   88.5808   16.7711 C.3     1  UNL1        0.2910
     23 N          63.9715   87.0268   15.1349 N.am    1  UNL1       -0.2992
     24 C          63.3716   87.2784   16.4865 C.2     1  UNL1        0.2673
     25 O          63.4595   86.2278   17.5534 O.2     1  UNL1       -0.2711
     26 H          63.9138   87.7164   14.4346 H       1  UNL1        0.1498
     27 C          64.6592   85.7245   14.8503 C.3     1  UNL1        0.0942
     28 C          66.1497   85.6189   14.9821 C.3     1  UNL1        0.0262
     29 C          62.2510   82.1343   13.6008 C.ar    1  UNL1        0.1387
     30 C          63.2913   82.6976   12.6784 C.ar    1  UNL1        0.0366
     31 C          64.0940   83.8943   13.0949 C.ar    1  UNL1        0.0004
     32 C          63.8565   84.5278   14.4338 C.ar    1  UNL1       -0.0043
     33 C          62.8162   83.9645   15.3560 C.ar    1  UNL1        0.0004
     34 C          62.0135   82.7678   14.9395 C.ar    1  UNL1        0.0366
     35 C          60.3706   80.4076   14.0831 C.3     1  UNL1        0.2525
     36 O          61.4483   80.9376   13.1843 O.3     1  UNL1       -0.4714
@<TRIPOS>BOND
     1    35    36    1
     2    36    29    1
     3    29    30   ar
     4    30    31   ar
     5    31    32   ar
     6    32    27    1
     7    27    28    1
     8    27    23    1
     9    23    24   am
    10    24    25    2
    11    24    22    1
    12    22    21    1
    13    21     1    1
    14     1     2   ar
    15     2     3   ar
    16     3    17    1
    17    17    18    1
    18    17    19    1
    19    17    20    1
    20     3     4   ar
    21     4     5   ar
    22     5    11    1
    23    11    12   ar
    24    12    13   ar
    25    13    14   ar
    26    14    15   ar
    27    15    16   ar
    28     5     6   ar
    29     6     7   ar
    30     7     8    1
    31     7     9   ar
    32     9    10   ar
    33    32    33   ar
    34    33    34   ar
    35    34    29   ar
    36    10     1   ar
    37     9     4   ar
    38    16    11   ar
    39    23    26    1
@<TRIPOS>MOLECULE
*****
 36 39 0 0 0
SMALL
GASTEIGER

@<TRIPOS>ATOM
      1 C          63.9228   88.3741   14.7252 C.ar    1  UNL1        0.2266
      2 C          64.1933   86.9478   15.1026 C.ar    1  UNL1        0.0617
      3 C          63.8733   85.8435   14.1392 C.ar    1  UNL1        0.0805
      4 C          63.2829   86.1655   12.7985 C.ar    1  UNL1        0.0590
      5 C          62.8665   85.2951   11.6499 C.ar    1  UNL1        0.1038
      6 N          62.3388   86.1835   10.5626 N.ar    1  UNL1       -0.1679
      7 N          62.4289   87.6029   11.0392 N.ar    1  UNL1       -0.2319
      8 C          62.0093   88.8199   10.2692 C.3     1  UNL1        0.1554
      9 C          63.0124   87.5918   12.4210 C.ar    1  UNL1        0.1639
     10 N          63.3324   88.6961   13.3844 N.ar    1  UNL1       -0.1928
     11 C          62.9614   83.7990   11.5977 C.ar    1  UNL1        0.0194
     12 C          62.2087   82.9647   12.5915 C.ar    1  UNL1        0.0016
     13 C          62.3036   81.4687   12.5393 C.ar    1  UNL1        0.0000
     14 C          63.1511   80.8069   11.4934 C.ar    1  UNL1        0.0000
     15 C          63.9037   81.6412   10.4997 C.ar    1  UNL1        0.0000
     16 C          63.8088   83.1372   10.5519 C.ar    1  UNL1        0.0016
     17 C          64.1438   84.4171   14.5166 C.3     1  UNL1        0.4189
     18 F          64.4143   82.9908   14.8940 F       1  UNL1       -0.1659
     19 F          65.3808   84.4273   13.6683 F       1  UNL1       -0.1659
     20 F          62.9068   84.4069   15.3649 F       1  UNL1       -0.1659
     21 O          64.2428   89.4784   15.6886 O.3     1  UNL1       -0.4501
     22 C          64.0857   90.9096   15.2679 C.3     1  UNL1        0.2910
     23 N          66.0318   91.2478   13.5802 N.am    1  UNL1       -0.2992
     24 C          65.2788   91.6892   14.8001 C.2     1  UNL1        0.2673
     25 O          65.7189   92.9101   15.5523 O.2     1  UNL1       -0.2711
     26 H          65.7429   90.4465   13.0866 H       1  UNL1        0.1498
     27 C          67.2249   92.0273   13.1125 C.3     1  UNL1        0.0942
     28 C          68.4833   92.0343   13.9288 C.3     1  UNL1        0.0262
     29 C          67.0290   94.3452    9.2603 C.ar    1  UNL1        0.1387
     30 C          66.2605   94.8166   10.4592 C.ar    1  UNL1        0.0366
     31 C          66.3258   94.0440   11.7432 C.ar    1  UNL1        0.0004
     32 C          67.1596   92.8000   11.8284 C.ar    1  UNL1       -0.0043
     33 C          67.9280   92.3286   10.6296 C.ar    1  UNL1        0.0004
     34 C          67.8628   93.1012    9.3455 C.ar    1  UNL1        0.0366
     35 C          66.4184   96.5152    7.9687 C.3     1  UNL1        0.2525
     36 O          66.9637   95.1178    7.9763 O.3     1  UNL1       -0.4714
@<TRIPOS>BOND
     1    35    36    1
     2    36    29    1
     3    29    30   ar
     4    30    31   ar
     5    31    32   ar
     6    32    27    1
     7    27    28    1
     8    27    23    1
     9    23    24   am
    10    24    25    2
    11    24    22    1
    12    22    21    1
    13    21     1    1
    14     1     2   ar
    15     2     3   ar
    16     3    17    1
    17    17    18    1
    18    17    19    1
    19    17    20    1
    20     3     4   ar
    21     4     5   ar
    22     5    11    1
    23    11    12   ar
    24    12    13   ar
    25    13    14   ar
    26    14    15   ar
    27    15    16   ar
    28     5     6   ar
    29     6     7   ar
    30     7     8    1
    31     7     9   ar
    32     9    10   ar
    33    32    33   ar
    34    33    34   ar
    35    34    29   ar
    36    10     1   ar
    37     9     4   ar
    38    16    11   ar
    39    23    26    1
@<TRIPOS>MOLECULE
*****
 36 39 0 0 0
SMALL
GASTEIGER

@<TRIPOS>ATOM
      1 C          63.3269   90.0588   13.7711 C.ar    1  UNL1        0.2266
      2 C          62.6710   90.2709   12.4389 C.ar    1  UNL1        0.0617
      3 C          62.3954   89.0993   11.5437 C.ar    1  UNL1        0.0805
      4 C          62.7757   87.7157   11.9806 C.ar    1  UNL1        0.0590
      5 C          62.6304   86.3782   11.3173 C.ar    1  UNL1        0.1038
      6 N          63.1965   85.3395   12.2395 N.ar    1  UNL1       -0.1679
      7 N          63.6917   86.0351   13.4729 N.ar    1  UNL1       -0.2319
      8 C          64.3341   85.3775   14.6581 C.3     1  UNL1        0.1554
      9 C          63.4315   87.5036   13.3128 C.ar    1  UNL1        0.1639
     10 N          63.7071   88.6752   14.2081 N.ar    1  UNL1       -0.1928
     11 C          62.0253   86.1240    9.9685 C.ar    1  UNL1        0.0194
     12 C          60.5947   86.4914    9.7070 C.ar    1  UNL1        0.0016
     13 C          59.9896   86.2372    8.3582 C.ar    1  UNL1        0.0000
     14 C          60.8151   85.6157    7.2709 C.ar    1  UNL1        0.0000
     15 C          62.2458   85.2483    7.5324 C.ar    1  UNL1        0.0000
     16 C          62.8508   85.5025    8.8812 C.ar    1  UNL1        0.0016
     17 C          61.7395   89.3114   10.2114 C.3     1  UNL1        0.4189
     18 F          61.0836   89.5234    8.8792 F       1  UNL1       -0.1659
     19 F          63.0885   89.4123    9.5634 F       1  UNL1       -0.1659
     20 F          60.3905   89.2104   10.8594 F       1  UNL1       -0.1659
     21 O          63.6025   91.2304   14.6664 O.3     1  UNL1       -0.4501
     22 C          64.9643   91.4097   15.2690 C.3     1  UNL1        0.2910
     23 N          65.9275   91.9811   12.9246 N.am    1  UNL1       -0.2992
     24 C          66.1216   91.8088   14.4020 C.2     1  UNL1        0.2673
     25 O          67.4728   92.0356   15.0124 O.2     1  UNL1       -0.2711
     26 H          65.0406   91.8323   12.5240 H       1  UNL1        0.1498
     27 C          67.0846   92.3802   12.0577 C.3     1  UNL1        0.0942
     28 C          68.3954   91.6608   12.1785 C.3     1  UNL1        0.0262
     29 C          66.6242   95.7354    9.0945 C.ar    1  UNL1        0.1387
     30 C          67.4892   94.5555    8.7631 C.ar    1  UNL1        0.0366
     31 C          67.6427   93.4371    9.7508 C.ar    1  UNL1        0.0004
     32 C          66.9312   93.4986   11.0700 C.ar    1  UNL1       -0.0043
     33 C          66.0662   94.6784   11.4013 C.ar    1  UNL1        0.0004
     34 C          65.9127   95.7968   10.4136 C.ar    1  UNL1        0.0366
     35 C          65.5322   96.7057    6.9460 C.3     1  UNL1        0.2525
     36 O          66.4707   96.8538    8.1067 O.3     1  UNL1       -0.4714
@<TRIPOS>BOND
     1    35    36    1
     2    36    29    1
     3    29    30   ar
     4    30    31   ar
     5    31    32   ar
     6    32    27    1
     7    27    28    1
     8    27    23    1
     9    23    24   am
    10    24    25    2
    11    24    22    1
    12    22    21    1
    13    21     1    1
    14     1     2   ar
    15     2     3   ar
    16     3    17    1
    17    17    18    1
    18    17    19    1
    19    17    20    1
    20     3     4   ar
    21     4     5   ar
    22     5    11    1
    23    11    12   ar
    24    12    13   ar
    25    13    14   ar
    26    14    15   ar
    27    15    16   ar
    28     5     6   ar
    29     6     7   ar
    30     7     8    1
    31     7     9   ar
    32     9    10   ar
    33    32    33   ar
    34    33    34   ar
    35    34    29   ar
    36    10     1   ar
    37     9     4   ar
    38    16    11   ar
    39    23    26    1
@<TRIPOS>MOLECULE
*****
 36 39 0 0 0
SMALL
GASTEIGER

@<TRIPOS>ATOM
      1 C          62.6699   90.8165   11.0141 C.ar    1  UNL1        0.2266
      2 C          63.8959   91.6531   10.7975 C.ar    1  UNL1        0.0617
      3 C          64.8724   91.8566   11.9177 C.ar    1  UNL1        0.0805
      4 C          64.6230   91.2236   13.2545 C.ar    1  UNL1        0.0590
      5 C          65.4011   91.2463   14.5368 C.ar    1  UNL1        0.1038
      6 N          64.6560   90.4238   15.5458 N.ar    1  UNL1       -0.1679
      7 N          63.4173   89.8927   14.8872 N.ar    1  UNL1       -0.2319
      8 C          62.3810   89.0204   15.5315 C.3     1  UNL1        0.1554
      9 C          63.3969   90.3870   13.4711 C.ar    1  UNL1        0.1639
     10 N          62.4204   90.1835   12.3509 N.ar    1  UNL1       -0.1928
     11 C          66.6969   91.9653   14.7691 C.ar    1  UNL1        0.0194
     12 C          66.7653   93.0849   15.7650 C.ar    1  UNL1        0.0016
     13 C          68.0611   93.8039   15.9973 C.ar    1  UNL1        0.0000
     14 C          69.2884   93.4033   15.2337 C.ar    1  UNL1        0.0000
     15 C          69.2201   92.2837   14.2378 C.ar    1  UNL1        0.0000
     16 C          67.9243   91.5647   14.0055 C.ar    1  UNL1        0.0016
     17 C          66.0986   92.6932   11.7012 C.3     1  UNL1        0.4189
     18 F          67.3246   93.5298   11.4846 F       1  UNL1       -0.1659
     19 F          65.5343   93.7529   12.6003 F       1  UNL1       -0.1659
     20 F          66.6628   91.6335   10.8020 F       1  UNL1       -0.1659
     21 O          61.6932   90.6129    9.8939 O.3     1  UNL1       -0.4501
     22 C          60.5326   89.6794   10.0711 C.3     1  UNL1        0.2910
     23 N          62.0085   87.6091    9.5369 N.am    1  UNL1       -0.2992
     24 C          60.6544   88.2436    9.6543 C.2     1  UNL1        0.2673
     25 O          59.4222   87.4424    9.3550 O.2     1  UNL1       -0.2711
     26 H          62.8173   88.1349    9.7334 H       1  UNL1        0.1498
     27 C          62.1302   86.1733    9.1201 C.3     1  UNL1        0.0942
     28 C          61.6910   85.7503    7.7496 C.3     1  UNL1        0.0262
     29 C          63.8133   83.1349   11.9812 C.ar    1  UNL1        0.1387
     30 C          64.1476   83.0559   10.5210 C.ar    1  UNL1        0.0366
     31 C          63.5866   84.0688    9.5673 C.ar    1  UNL1        0.0004
     32 C          62.6912   85.1605   10.0738 C.ar    1  UNL1       -0.0043
     33 C          62.3569   85.2394   11.5339 C.ar    1  UNL1        0.0004
     34 C          62.9179   84.2266   12.4876 C.ar    1  UNL1        0.0366
     35 C          63.4807   81.0710   13.5238 C.3     1  UNL1        0.2525
     36 O          64.3743   82.1221   12.9348 O.3     1  UNL1       -0.4714
@<TRIPOS>BOND
     1    35    36    1
     2    36    29    1
     3    29    30   ar
     4    30    31   ar
     5    31    32   ar
     6    32    27    1
     7    27    28    1
     8    27    23    1
     9    23    24   am
    10    24    25    2
    11    24    22    1
    12    22    21    1
    13    21     1    1
    14     1     2   ar
    15     2     3   ar
    16     3    17    1
    17    17    18    1
    18    17    19    1
    19    17    20    1
    20     3     4   ar
    21     4     5   ar
    22     5    11    1
    23    11    12   ar
    24    12    13   ar
    25    13    14   ar
    26    14    15   ar
    27    15    16   ar
    28     5     6   ar
    29     6     7   ar
    30     7     8    1
    31     7     9   ar
    32     9    10   ar
    33    32    33   ar
    34    33    34   ar
    35    34    29   ar
    36    10     1   ar
    37     9     4   ar
    38    16    11   ar
    39    23    26    1
@<TRIPOS>MOLECULE
*****
 36 39 0 0 0
SMALL
GASTEIGER

@<TRIPOS>ATOM
      1 C          62.4052   89.2934   11.1709 C.ar    1  UNL1        0.2266
      2 C          62.1421   88.1746   10.2071 C.ar    1  UNL1        0.0617
      3 C          62.4591   86.7607   10.5947 C.ar    1  UNL1        0.0805
      4 C          63.0392   86.4656   11.9462 C.ar    1  UNL1        0.0590
      5 C          63.4505   85.1813   12.6032 C.ar    1  UNL1        0.1038
      6 N          63.9679   85.5065   13.9731 N.ar    1  UNL1       -0.1679
      7 N          63.8764   86.9917   14.1626 N.ar    1  UNL1       -0.2319
      8 C          64.2867   87.7509   15.3895 C.3     1  UNL1        0.1554
      9 C          63.3024   87.5844   12.9100 C.ar    1  UNL1        0.1639
     10 N          62.9854   88.9983   12.5223 N.ar    1  UNL1       -0.1928
     11 C          63.3603   83.8124   11.9968 C.ar    1  UNL1        0.0194
     12 C          64.1835   83.4708   10.7903 C.ar    1  UNL1        0.0016
     13 C          64.0932   82.1018   10.1839 C.ar    1  UNL1        0.0000
     14 C          63.1798   81.0744   10.7841 C.ar    1  UNL1        0.0000
     15 C          62.3566   81.4160   11.9906 C.ar    1  UNL1        0.0000
     16 C          62.4469   82.7850   12.5969 C.ar    1  UNL1        0.0016
     17 C          62.1959   85.6418    9.6309 C.3     1  UNL1        0.4189
     18 F          61.9327   84.5229    8.6672 F       1  UNL1       -0.1659
     19 F          61.0264   85.2021   10.4608 F       1  UNL1       -0.1659
     20 F          63.3654   86.0816    8.8010 F       1  UNL1       -0.1659
     21 O          62.0882   90.7075   10.7833 O.3     1  UNL1       -0.4501
     22 C          63.1078   91.5320   10.0550 C.3     1  UNL1        0.2910
     23 N          65.0849   93.2169   10.1035 N.am    1  UNL1       -0.2992
     24 C          64.1305   92.3130   10.8259 C.2     1  UNL1        0.2673
     25 O          64.1987   92.1899   12.3193 O.2     1  UNL1       -0.2711
     26 H          65.0401   93.2977    9.1234 H       1  UNL1        0.1498
     27 C          66.1074   93.9978   10.8745 C.3     1  UNL1        0.0942
     28 C          66.5688   95.3329   10.3696 C.3     1  UNL1        0.0262
     29 C          67.7913   92.3356   14.7022 C.ar    1  UNL1        0.1387
     30 C          66.9424   93.5720   14.7309 C.ar    1  UNL1        0.0366
     31 C          66.3811   94.1260   13.4550 C.ar    1  UNL1        0.0004
     32 C          66.6687   93.4438   12.1504 C.ar    1  UNL1       -0.0043
     33 C          67.5177   92.2075   12.1218 C.ar    1  UNL1        0.0004
     34 C          68.0790   91.6534   13.3977 C.ar    1  UNL1        0.0366
     35 C          69.4975   92.4736   16.6568 C.3     1  UNL1        0.2525
     36 O          68.3526   91.7815   15.9781 O.3     1  UNL1       -0.4714
@<TRIPOS>BOND
     1    35    36    1
     2    36    29    1
     3    29    30   ar
     4    30    31   ar
     5    31    32   ar
     6    32    27    1
     7    27    28    1
     8    27    23    1
     9    23    24   am
    10    24    25    2
    11    24    22    1
    12    22    21    1
    13    21     1    1
    14     1     2   ar
    15     2     3   ar
    16     3    17    1
    17    17    18    1
    18    17    19    1
    19    17    20    1
    20     3     4   ar
    21     4     5   ar
    22     5    11    1
    23    11    12   ar
    24    12    13   ar
    25    13    14   ar
    26    14    15   ar
    27    15    16   ar
    28     5     6   ar
    29     6     7   ar
    30     7     8    1
    31     7     9   ar
    32     9    10   ar
    33    32    33   ar
    34    33    34   ar
    35    34    29   ar
    36    10     1   ar
    37     9     4   ar
    38    16    11   ar
    39    23    26    1
@<TRIPOS>MOLECULE
*****
 36 39 0 0 0
SMALL
GASTEIGER

@<TRIPOS>ATOM
      1 C          60.7476   92.4991    3.0070 C.ar    1  UNL1        0.2266
      2 C          59.5925   92.9286    2.1519 C.ar    1  UNL1        0.0617
      3 C          59.8417   93.5138    0.7935 C.ar    1  UNL1        0.0805
      4 C          61.2461   93.6696    0.2901 C.ar    1  UNL1        0.0590
      5 C          61.7971   94.2092   -0.9965 C.ar    1  UNL1        0.1038
      6 N          63.2929   94.1133   -0.9365 N.ar    1  UNL1       -0.1679
      7 N          63.6662   93.5144    0.3871 N.ar    1  UNL1       -0.2319
      8 C          65.0599   93.2382    0.8682 C.3     1  UNL1        0.1554
      9 C          62.4013   93.2402    1.1452 C.ar    1  UNL1        0.1639
     10 N          62.1520   92.6550    2.5036 N.ar    1  UNL1       -0.1928
     11 C          60.9935   94.7498   -2.1419 C.ar    1  UNL1        0.0194
     12 C          60.7343   96.2235   -2.2466 C.ar    1  UNL1        0.0016
     13 C          59.9306   96.7640   -3.3920 C.ar    1  UNL1        0.0000
     14 C          59.3863   95.8309   -4.4327 C.ar    1  UNL1        0.0000
     15 C          59.6455   94.3572   -4.3279 C.ar    1  UNL1        0.0000
     16 C          60.4492   93.8167   -3.1825 C.ar    1  UNL1        0.0016
     17 C          58.6865   93.9432   -0.0617 C.3     1  UNL1        0.4189
     18 F          57.5314   94.3727   -0.9167 F       1  UNL1       -0.1659
     19 F          58.8679   95.3576    0.4037 F       1  UNL1       -0.1659
     20 F          58.5052   92.5288   -0.5270 F       1  UNL1       -0.1659
     21 O          60.4984   91.9139    4.3655 O.3     1  UNL1       -0.4501
     22 C          59.1004   91.5770    4.7920 C.3     1  UNL1        0.2910
     23 N          60.0329   89.9848    6.6211 N.am    1  UNL1       -0.2992
     24 C          58.8694   90.5546    5.8651 C.2     1  UNL1        0.2673
     25 O          57.4749   90.1019    6.1820 O.2     1  UNL1       -0.2711
     26 H          60.9482   90.2819    6.4130 H       1  UNL1        0.1498
     27 C          59.8019   88.9624    7.6940 C.3     1  UNL1        0.0942
     28 C          58.9528   87.7583    7.4124 C.3     1  UNL1        0.0262
     29 C          61.6559   89.5074   11.7580 C.ar    1  UNL1        0.1387
     30 C          62.2152   88.4893   10.8089 C.ar    1  UNL1        0.0366
     31 C          61.5972   88.3076    9.4542 C.ar    1  UNL1        0.0004
     32 C          60.4199   89.1441    9.0487 C.ar    1  UNL1       -0.0043
     33 C          59.8607   90.1622    9.9977 C.ar    1  UNL1        0.0004
     34 C          60.4787   90.3438   11.3524 C.ar    1  UNL1        0.0366
     35 C          63.7652   89.6453   13.2686 C.3     1  UNL1        0.2525
     36 O          62.2739   89.6891   13.1126 O.3     1  UNL1       -0.4714
@<TRIPOS>BOND
     1    35    36    1
     2    36    29    1
     3    29    30   ar
     4    30    31   ar
     5    31    32   ar
     6    32    27    1
     7    27    28    1
     8    27    23    1
     9    23    24   am
    10    24    25    2
    11    24    22    1
    12    22    21    1
    13    21     1    1
    14     1     2   ar
    15     2     3   ar
    16     3    17    1
    17    17    18    1
    18    17    19    1
    19    17    20    1
    20     3     4   ar
    21     4     5   ar
    22     5    11    1
    23    11    12   ar
    24    12    13   ar
    25    13    14   ar
    26    14    15   ar
    27    15    16   ar
    28     5     6   ar
    29     6     7   ar
    30     7     8    1
    31     7     9   ar
    32     9    10   ar
    33    32    33   ar
    34    33    34   ar
    35    34    29   ar
    36    10     1   ar
    37     9     4   ar
    38    16    11   ar
    39    23    26    1
@<TRIPOS>MOLECULE
*****
 36 39 0 0 0
SMALL
GASTEIGER

@<TRIPOS>ATOM
      1 C          59.9840   91.6720    4.5900 C.ar    1  UNL1        0.2266
      2 C          59.4194   92.7613    3.7272 C.ar    1  UNL1        0.0617
      3 C          60.2401   93.3344    2.6100 C.ar    1  UNL1        0.0805
      4 C          61.6253   92.8181    2.3557 C.ar    1  UNL1        0.0590
      5 C          62.6621   93.1860    1.3360 C.ar    1  UNL1        0.1038
      6 N          63.8674   92.3239    1.5686 N.ar    1  UNL1       -0.1679
      7 N          63.5755   91.4233    2.7321 N.ar    1  UNL1       -0.2319
      8 C          64.5059   90.3973    3.3081 C.3     1  UNL1        0.1554
      9 C          62.1898   91.7287    3.2186 C.ar    1  UNL1        0.1639
     10 N          61.3691   91.1557    4.3357 N.ar    1  UNL1       -0.1928
     11 C          62.5188   94.2322    0.2707 C.ar    1  UNL1        0.0194
     12 C          61.9713   93.8615   -1.0757 C.ar    1  UNL1        0.0016
     13 C          61.8280   94.9078   -2.1410 C.ar    1  UNL1        0.0000
     14 C          62.2321   96.3247   -1.8598 C.ar    1  UNL1        0.0000
     15 C          62.7795   96.6954   -0.5134 C.ar    1  UNL1        0.0000
     16 C          62.9229   95.6491    0.5518 C.ar    1  UNL1        0.0016
     17 C          59.6756   94.4239    1.7471 C.3     1  UNL1        0.4189
     18 F          59.1112   95.5133    0.8843 F       1  UNL1       -0.1659
     19 F          60.2965   95.4547    2.6425 F       1  UNL1       -0.1659
     20 F          59.0547   93.3930    0.8517 F       1  UNL1       -0.1659
     21 O          59.1633   91.0988    5.7072 O.3     1  UNL1       -0.4501
     22 C          59.1407   89.6168    5.9373 C.3     1  UNL1        0.2910
     23 N          60.2873   89.6984    8.2673 N.am    1  UNL1       -0.2992
     24 C          59.3036   89.0707    7.3249 C.2     1  UNL1        0.2673
     25 O          58.4826   87.8968    7.7700 O.2     1  UNL1       -0.2711
     26 H          60.8261   90.4688    7.9752 H       1  UNL1        0.1498
     27 C          60.4501   89.1523    9.6548 C.3     1  UNL1        0.0942
     28 C          59.9200   89.9194   10.8298 C.3     1  UNL1        0.0262
     29 C          62.5289   85.2125   10.2925 C.ar    1  UNL1        0.1387
     30 C          61.7936   85.8646   11.4258 C.ar    1  UNL1        0.0366
     31 C          61.1007   87.1779   11.2132 C.ar    1  UNL1        0.0004
     32 C          61.1430   87.8390    9.8674 C.ar    1  UNL1       -0.0043
     33 C          61.8783   87.1868    8.7342 C.ar    1  UNL1        0.0004
     34 C          62.5712   85.8736    8.9468 C.ar    1  UNL1        0.0366
     35 C          63.5786   83.4554   11.8929 C.3     1  UNL1        0.2525
     36 O          63.2218   83.8992   10.5051 O.3     1  UNL1       -0.4714
@<TRIPOS>BOND
     1    35    36    1
     2    36    29    1
     3    29    30   ar
     4    30    31   ar
     5    31    32   ar
     6    32    27    1
     7    27    28    1
     8    27    23    1
     9    23    24   am
    10    24    25    2
    11    24    22    1
    12    22    21    1
    13    21     1    1
    14     1     2   ar
    15     2     3   ar
    16     3    17    1
    17    17    18    1
    18    17    19    1
    19    17    20    1
    20     3     4   ar
    21     4     5   ar
    22     5    11    1
    23    11    12   ar
    24    12    13   ar
    25    13    14   ar
    26    14    15   ar
    27    15    16   ar
    28     5     6   ar
    29     6     7   ar
    30     7     8    1
    31     7     9   ar
    32     9    10   ar
    33    32    33   ar
    34    33    34   ar
    35    34    29   ar
    36    10     1   ar
    37     9     4   ar
    38    16    11   ar
    39    23    26    1
@<TRIPOS>MOLECULE
*****
 36 39 0 0 0
SMALL
GASTEIGER

@<TRIPOS>ATOM
      1 C          62.3202   88.3007   10.6659 C.ar    1  UNL1        0.2266
      2 C          62.5239   87.6558   12.0047 C.ar    1  UNL1        0.0617
      3 C          62.7685   86.1787   12.0963 C.ar    1  UNL1        0.0805
      4 C          62.8095   85.3466   10.8489 C.ar    1  UNL1        0.0590
      5 C          63.0293   83.8792   10.6281 C.ar    1  UNL1        0.1038
      6 N          62.9614   83.6173    9.1527 N.ar    1  UNL1       -0.1679
      7 N          62.6997   84.9228    8.4618 N.ar    1  UNL1       -0.2319
      8 C          62.5569   85.1241    6.9822 C.3     1  UNL1        0.1554
      9 C          62.6058   85.9915    9.5101 C.ar    1  UNL1        0.1639
     10 N          62.3611   87.4685    9.4186 N.ar    1  UNL1       -0.1928
     11 C          63.2740   82.8539   11.6952 C.ar    1  UNL1        0.0194
     12 C          64.5927   82.8143   12.4090 C.ar    1  UNL1        0.0016
     13 C          64.8373   81.7889   13.4761 C.ar    1  UNL1        0.0000
     14 C          63.7632   80.8033   13.8295 C.ar    1  UNL1        0.0000
     15 C          62.4445   80.8429   13.1158 C.ar    1  UNL1        0.0000
     16 C          62.1999   81.8683   12.0487 C.ar    1  UNL1        0.0016
     17 C          62.9722   85.5338   13.4352 C.3     1  UNL1        0.4189
     18 F          63.1759   84.8888   14.7740 F       1  UNL1       -0.1659
     19 F          61.6782   84.7924   13.2749 F       1  UNL1       -0.1659
     20 F          64.2663   86.2751   13.5955 F       1  UNL1       -0.1659
     21 O          62.0755   89.7778   10.5743 O.3     1  UNL1       -0.4501
     22 C          62.5340   90.6838   11.6783 C.3     1  UNL1        0.2910
     23 N          64.6570   91.4926   12.9388 N.am    1  UNL1       -0.2992
     24 C          63.9215   91.2534   11.6536 C.2     1  UNL1        0.2673
     25 O          64.5734   91.5838   10.3437 O.2     1  UNL1       -0.2711
     26 H          64.2292   91.2758   13.7985 H       1  UNL1        0.1498
     27 C          66.0444   92.0622   12.9141 C.3     1  UNL1        0.0942
     28 C          67.0163   91.7173   14.0034 C.3     1  UNL1        0.0262
     29 C          67.2913   94.8055    9.5719 C.ar    1  UNL1        0.1387
     30 C          66.4367   95.3254   10.6898 C.ar    1  UNL1        0.0366
     31 C          66.0211   94.4110   11.8038 C.ar    1  UNL1        0.0004
     32 C          66.4600   92.9766   11.8000 C.ar    1  UNL1       -0.0043
     33 C          67.3145   92.4567   10.6822 C.ar    1  UNL1        0.0004
     34 C          67.7302   93.3711    9.5682 C.ar    1  UNL1        0.0366
     35 C          66.7529   96.7567    7.9432 C.3     1  UNL1        0.2525
     36 O          67.7069   95.7199    8.4579 O.3     1  UNL1       -0.4714
@<TRIPOS>BOND
     1    35    36    1
     2    36    29    1
     3    29    30   ar
     4    30    31   ar
     5    31    32   ar
     6    32    27    1
     7    27    28    1
     8    27    23    1
     9    23    24   am
    10    24    25    2
    11    24    22    1
    12    22    21    1
    13    21     1    1
    14     1     2   ar
    15     2     3   ar
    16     3    17    1
    17    17    18    1
    18    17    19    1
    19    17    20    1
    20     3     4   ar
    21     4     5   ar
    22     5    11    1
    23    11    12   ar
    24    12    13   ar
    25    13    14   ar
    26    14    15   ar
    27    15    16   ar
    28     5     6   ar
    29     6     7   ar
    30     7     8    1
    31     7     9   ar
    32     9    10   ar
    33    32    33   ar
    34    33    34   ar
    35    34    29   ar
    36    10     1   ar
    37     9     4   ar
    38    16    11   ar
    39    23    26    1
