@<TRIPOS>MOLECULE
*****
 24 27 0 0 0
SMALL
GASTEIGER

@<TRIPOS>ATOM
      1 C          66.5860   92.3437   13.8179 C.2     1  UNL1        0.1219
      2 C          65.8946   91.2277   14.5435 C.2     1  UNL1        0.0285
      3 C          64.7385   90.5189   13.9021 C.2     1  UNL1       -0.0178
      4 C          64.0471   89.4029   14.6277 C.3     1  UNL1        0.0312
      5 C          64.2739   90.9263   12.5354 C.2     1  UNL1        0.0179
      6 C          63.1703   90.4159   11.6569 C.2     1  UNL1        0.0955
      7 C          63.1796   91.2165   10.3885 C.2     1  UNL1        0.1049
      8 N          64.2890   92.2217   10.4830 N.2     1  UNL1       -0.2475
      9 C          64.9653   92.0423   11.8098 C.2     1  UNL1        0.0665
     10 C          66.1213   92.7510   12.4511 C.3     1  UNL1        0.1095
     11 C          68.4482   92.4307   15.6274 C.3     1  UNL1        0.2520
     12 O          67.7420   93.0524   14.4592 O.2     1  UNL1       -0.4753
     13 C          62.2236   89.3007   11.9887 C.2     1  UNL1        0.3428
     14 O          60.9305   89.5978   12.6885 O.2     1  UNL1       -0.2448
     15 O          62.5699   87.8884   11.6206 O.3     1  UNL1       -0.4454
     16 C          61.4906   86.9386   11.1926 C.3     1  UNL1        0.2087
     17 C          61.4879   86.3855    9.7984 C.3     1  UNL1        0.0445
     18 C          62.7024   85.6830    9.2678 C.3     1  UNL1        0.0210
     19 C          62.6996   85.1299    7.8735 C.3     1  UNL1        0.0722
     20 N          61.4823   85.2793    7.0098 N.3     1  UNL1       -0.2727
     21 C          60.2679   85.9819    7.5404 C.3     1  UNL1        0.0722
     22 C          60.2707   86.5349    8.9347 C.3     1  UNL1        0.0210
     23 C          61.4367   85.5989    7.7672 C.3     1  UNL1        0.0722
     24 C          61.4391   86.0990    9.0279 C.3     1  UNL1        0.0210
@<TRIPOS>BOND
     1    11    12    1
     2    12     1    1
     3     1     2    2
     4     2     3    1
     5     3     4    1
     6     3     5    2
     7     5     6    1
     8     6    13    1
     9    13    14    2
    10    13    15    1
    11    15    16    1
    12    16    17    1
    13    17    18    1
    14    18    19    1
    15    19    20    1
    16    20    21    1
    17    21    22    1
    18    20    23    1
    19    23    24    1
    20     6     7    2
    21     7     8    1
    22     8     9    2
    23     9    10    1
    24    10     1    1
    25     9     5    1
    26    22    17    1
    27    24    17    1
@<TRIPOS>MOLECULE
*****
 24 27 0 0 0
SMALL
GASTEIGER

@<TRIPOS>ATOM
      1 C          66.0007   93.3742   11.8205 C.2     1  UNL1        0.1219
      2 C          65.0388   92.9163   10.7646 C.2     1  UNL1        0.0285
      3 C          64.1435   91.7411   11.0244 C.2     1  UNL1       -0.0178
      4 C          63.1815   91.2832    9.9685 C.3     1  UNL1        0.0312
      5 C          64.2102   91.0238   12.3401 C.2     1  UNL1        0.0179
      6 C          63.4579   89.8432   12.8789 C.2     1  UNL1        0.0955
      7 C          63.9550   89.5715   14.2679 C.2     1  UNL1        0.1049
      8 N          65.0144   90.5841   14.5874 N.2     1  UNL1       -0.2475
      9 C          65.1721   91.4817   13.3960 C.2     1  UNL1        0.0665
     10 C          66.0674   92.6569   13.1362 C.3     1  UNL1        0.1095
     11 C          66.3790   95.7313   10.7956 C.3     1  UNL1        0.2520
     12 O          66.8960   94.5493   11.5607 O.2     1  UNL1       -0.4753
     13 C          62.3952   89.0701   12.1558 C.2     1  UNL1        0.3428
     14 O          60.9646   89.5155   12.2263 O.2     1  UNL1       -0.2448
     15 O          62.7631   87.8517   11.3621 O.3     1  UNL1       -0.4454
     16 C          61.7633   86.7495   11.1731 C.3     1  UNL1        0.2087
     17 C          61.1400   86.5249    9.8274 C.3     1  UNL1        0.0445
     18 C          61.8618   85.7138    8.7924 C.3     1  UNL1        0.0210
     19 C          61.2384   85.4893    7.4467 C.3     1  UNL1        0.0722
     20 N          59.8933   86.0759    7.1359 N.3     1  UNL1       -0.2727
     21 C          59.1715   86.8870    8.1709 C.3     1  UNL1        0.0722
     22 C          59.7949   87.1115    9.5166 C.3     1  UNL1        0.0210
     23 C          60.1947   86.2260    7.8872 C.3     1  UNL1        0.0722
     24 C          60.7583   86.4291    9.1041 C.3     1  UNL1        0.0210
@<TRIPOS>BOND
     1    11    12    1
     2    12     1    1
     3     1     2    2
     4     2     3    1
     5     3     4    1
     6     3     5    2
     7     5     6    1
     8     6    13    1
     9    13    14    2
    10    13    15    1
    11    15    16    1
    12    16    17    1
    13    17    18    1
    14    18    19    1
    15    19    20    1
    16    20    21    1
    17    21    22    1
    18    20    23    1
    19    23    24    1
    20     6     7    2
    21     7     8    1
    22     8     9    2
    23     9    10    1
    24    10     1    1
    25     9     5    1
    26    22    17    1
    27    24    17    1
@<TRIPOS>MOLECULE
*****
 24 27 0 0 0
SMALL
GASTEIGER

@<TRIPOS>ATOM
      1 C          66.6274   92.3919   13.6853 C.2     1  UNL1        0.1219
      2 C          65.9916   91.2602   14.4369 C.2     1  UNL1        0.0285
      3 C          64.8310   90.5213   13.8393 C.2     1  UNL1       -0.0178
      4 C          64.1951   89.3896   14.5909 C.3     1  UNL1        0.0312
      5 C          64.3063   90.9141   12.4901 C.2     1  UNL1        0.0179
      6 C          63.1844   90.3744   11.6533 C.2     1  UNL1        0.0955
      7 C          63.1270   91.1725   10.3846 C.2     1  UNL1        0.1049
      8 N          64.2133   92.2055   10.4372 N.2     1  UNL1       -0.2475
      9 C          64.9422   92.0458   11.7385 C.2     1  UNL1        0.0665
     10 C          66.1027   92.7847   12.3360 C.3     1  UNL1        0.1095
     11 C          67.7758   93.4957   15.7378 C.3     1  UNL1        0.2520
     12 O          67.7880   93.1307   14.2829 O.2     1  UNL1       -0.4753
     13 C          62.2790   89.2363   12.0208 C.2     1  UNL1        0.3428
     14 O          60.8522   89.5047   12.3979 O.2     1  UNL1       -0.2448
     15 O          62.8004   87.8299   12.0112 O.3     1  UNL1       -0.4454
     16 C          62.0572   86.7594   11.2683 C.3     1  UNL1        0.2087
     17 C          62.5831   85.3548   11.2518 C.3     1  UNL1        0.0445
     18 C          62.5604   84.5306   12.5049 C.3     1  UNL1        0.0210
     19 C          63.0863   83.1259   12.4883 C.3     1  UNL1        0.0722
     20 N          63.6351   82.5455   11.2186 N.3     1  UNL1       -0.2727
     21 C          63.6578   83.3697    9.9656 C.3     1  UNL1        0.0722
     22 C          63.1319   84.7743    9.9822 C.3     1  UNL1        0.0210
     23 C          63.3580   83.3198   11.1788 C.3     1  UNL1        0.0722
     24 C          62.8824   84.5899   11.1937 C.3     1  UNL1        0.0210
@<TRIPOS>BOND
     1    11    12    1
     2    12     1    1
     3     1     2    2
     4     2     3    1
     5     3     4    1
     6     3     5    2
     7     5     6    1
     8     6    13    1
     9    13    14    2
    10    13    15    1
    11    15    16    1
    12    16    17    1
    13    17    18    1
    14    18    19    1
    15    19    20    1
    16    20    21    1
    17    21    22    1
    18    20    23    1
    19    23    24    1
    20     6     7    2
    21     7     8    1
    22     8     9    2
    23     9    10    1
    24    10     1    1
    25     9     5    1
    26    22    17    1
    27    24    17    1
@<TRIPOS>MOLECULE
*****
 24 27 0 0 0
SMALL
GASTEIGER

@<TRIPOS>ATOM
      1 C          65.9643   93.1835   11.9042 C.2     1  UNL1        0.1219
      2 C          65.0020   92.7987   10.8198 C.2     1  UNL1        0.0285
      3 C          64.0676   91.6427   11.0218 C.2     1  UNL1       -0.0178
      4 C          63.1054   91.2578    9.9374 C.3     1  UNL1        0.0312
      5 C          64.0955   90.8717   12.3081 C.2     1  UNL1        0.0179
      6 C          63.3004   89.6947   12.7903 C.2     1  UNL1        0.0955
      7 C          63.7712   89.3521   14.1726 C.2     1  UNL1        0.1049
      8 N          64.8573   90.3174   14.5448 N.2     1  UNL1       -0.2475
      9 C          65.0578   91.2566   13.3925 C.2     1  UNL1        0.0665
     10 C          65.9921   92.4124   13.1906 C.3     1  UNL1        0.1095
     11 C          66.5442   95.4303   10.7357 C.3     1  UNL1        0.2520
     12 O          66.8987   94.3394   11.7023 O.2     1  UNL1       -0.4753
     13 C          62.2235   88.9849   12.0244 C.2     1  UNL1        0.3428
     14 O          60.7945   89.4195   12.1621 O.2     1  UNL1       -0.2448
     15 O          62.5756   87.8405   11.1209 O.3     1  UNL1       -0.4454
     16 C          61.8385   86.5392   11.2366 C.3     1  UNL1        0.2087
     17 C          62.6012   85.2508   11.3282 C.3     1  UNL1        0.0445
     18 C          63.1106   84.5905   10.0814 C.3     1  UNL1        0.0210
     19 C          63.8733   83.3021   10.1731 C.3     1  UNL1        0.0722
     20 N          64.1265   82.6741   11.5115 N.3     1  UNL1       -0.2727
     21 C          63.6171   83.3344   12.7583 C.3     1  UNL1        0.0722
     22 C          62.8544   84.6228   12.6666 C.3     1  UNL1        0.0210
     23 C          63.7037   83.3805   11.5114 C.3     1  UNL1        0.0722
     24 C          63.0141   84.5455   11.4287 C.3     1  UNL1        0.0210
@<TRIPOS>BOND
     1    11    12    1
     2    12     1    1
     3     1     2    2
     4     2     3    1
     5     3     4    1
     6     3     5    2
     7     5     6    1
     8     6    13    1
     9    13    14    2
    10    13    15    1
    11    15    16    1
    12    16    17    1
    13    17    18    1
    14    18    19    1
    15    19    20    1
    16    20    21    1
    17    21    22    1
    18    20    23    1
    19    23    24    1
    20     6     7    2
    21     7     8    1
    22     8     9    2
    23     9    10    1
    24    10     1    1
    25     9     5    1
    26    22    17    1
    27    24    17    1
@<TRIPOS>MOLECULE
*****
 24 27 0 0 0
SMALL
GASTEIGER

@<TRIPOS>ATOM
      1 C          61.8457   86.8623   10.1773 C.2     1  UNL1        0.1219
      2 C          61.8500   88.3406    9.9231 C.2     1  UNL1        0.0285
      3 C          62.4812   89.2706   10.9164 C.2     1  UNL1       -0.0178
      4 C          62.4855   90.7489   10.6622 C.3     1  UNL1        0.0312
      5 C          63.1080   88.7224   12.1640 C.2     1  UNL1        0.0179
      6 C          63.8001   89.3888   13.3159 C.2     1  UNL1        0.0955
      7 C          64.2235   88.3225   14.2821 C.2     1  UNL1        0.1049
      8 N          63.7931   86.9970   13.7274 N.2     1  UNL1       -0.2475
      9 C          63.1037   87.2441   12.4183 C.2     1  UNL1        0.0665
     10 C          62.4726   86.3141   11.4250 C.3     1  UNL1        0.1095
     11 C          60.1648   86.4417    8.2416 C.3     1  UNL1        0.2520
     12 O          61.2146   85.9323    9.1840 O.2     1  UNL1       -0.4753
     13 C          64.0286   90.8629   13.4739 C.2     1  UNL1        0.3428
     14 O          63.6811   91.5415   14.7656 O.2     1  UNL1       -0.2448
     15 O          64.6046   91.6583   12.3401 O.3     1  UNL1       -0.4454
     16 C          65.9974   92.2064   12.4398 C.3     1  UNL1        0.2087
     17 C          66.6974   92.7038   11.2100 C.3     1  UNL1        0.0445
     18 C          67.8847   91.9623   10.6710 C.3     1  UNL1        0.0210
     19 C          68.5847   92.4598    9.4412 C.3     1  UNL1        0.0722
     20 N          68.0974   93.6988    8.7504 N.3     1  UNL1       -0.2727
     21 C          66.9101   94.4404    9.2893 C.3     1  UNL1        0.0722
     22 C          66.2101   93.9429   10.5191 C.3     1  UNL1        0.0210
     23 C          67.6814   93.4647    9.4212 C.3     1  UNL1        0.0722
     24 C          67.0484   93.0149   10.5332 C.3     1  UNL1        0.0210
@<TRIPOS>BOND
     1    11    12    1
     2    12     1    1
     3     1     2    2
     4     2     3    1
     5     3     4    1
     6     3     5    2
     7     5     6    1
     8     6    13    1
     9    13    14    2
    10    13    15    1
    11    15    16    1
    12    16    17    1
    13    17    18    1
    14    18    19    1
    15    19    20    1
    16    20    21    1
    17    21    22    1
    18    20    23    1
    19    23    24    1
    20     6     7    2
    21     7     8    1
    22     8     9    2
    23     9    10    1
    24    10     1    1
    25     9     5    1
    26    22    17    1
    27    24    17    1
@<TRIPOS>MOLECULE
*****
 24 27 0 0 0
SMALL
GASTEIGER

@<TRIPOS>ATOM
      1 C          66.0170   93.8928   11.1002 C.2     1  UNL1        0.1219
      2 C          65.0828   92.9123   10.4553 C.2     1  UNL1        0.0285
      3 C          64.4705   91.8120   11.2706 C.2     1  UNL1       -0.0178
      4 C          63.5363   90.8315   10.6257 C.3     1  UNL1        0.0312
      5 C          64.7925   91.6922   12.7307 C.2     1  UNL1        0.0179
      6 C          64.3445   90.7194   13.7808 C.2     1  UNL1        0.0955
      7 C          65.0017   91.0985   15.0747 C.2     1  UNL1        0.1049
      8 N          65.8560   92.3058   14.8242 N.2     1  UNL1       -0.2475
      9 C          65.7267   92.6727   13.3756 C.2     1  UNL1        0.0665
     10 C          66.3389   93.7730   12.5604 C.3     1  UNL1        0.1095
     11 C          67.7330   94.6843    9.3174 C.3     1  UNL1        0.2520
     12 O          66.6292   94.9930   10.2850 O.2     1  UNL1       -0.4753
     13 C          63.4042   89.5692   13.5734 C.2     1  UNL1        0.3428
     14 O          61.9280   89.8158   13.4736 O.2     1  UNL1       -0.2448
     15 O          63.9401   88.1723   13.4657 O.3     1  UNL1       -0.4454
     16 C          64.4151   87.4544   14.6941 C.3     1  UNL1        0.2087
     17 C          64.1291   85.9920   14.8659 C.3     1  UNL1        0.0445
     18 C          64.8628   84.9816   14.0348 C.3     1  UNL1        0.0210
     19 C          64.5767   83.5192   14.2066 C.3     1  UNL1        0.0722
     20 N          63.5569   83.0672   15.2094 N.3     1  UNL1       -0.2727
     21 C          62.8232   84.0776   16.0405 C.3     1  UNL1        0.0722
     22 C          63.1093   85.5400   15.8687 C.3     1  UNL1        0.0210
     23 C          63.6796   83.8792   15.1509 C.3     1  UNL1        0.0722
     24 C          63.9382   85.2016   14.9956 C.3     1  UNL1        0.0210
@<TRIPOS>BOND
     1    11    12    1
     2    12     1    1
     3     1     2    2
     4     2     3    1
     5     3     4    1
     6     3     5    2
     7     5     6    1
     8     6    13    1
     9    13    14    2
    10    13    15    1
    11    15    16    1
    12    16    17    1
    13    17    18    1
    14    18    19    1
    15    19    20    1
    16    20    21    1
    17    21    22    1
    18    20    23    1
    19    23    24    1
    20     6     7    2
    21     7     8    1
    22     8     9    2
    23     9    10    1
    24    10     1    1
    25     9     5    1
    26    22    17    1
    27    24    17    1
@<TRIPOS>MOLECULE
*****
 24 27 0 0 0
SMALL
GASTEIGER

@<TRIPOS>ATOM
      1 C          62.4210   86.1638   11.4866 C.2     1  UNL1        0.1219
      2 C          63.1840   86.4398   12.7483 C.2     1  UNL1        0.0285
      3 C          63.5771   87.8454   13.0947 C.2     1  UNL1       -0.0178
      4 C          64.3400   88.1214   14.3564 C.3     1  UNL1        0.0312
      5 C          63.2072   88.9748   12.1796 C.2     1  UNL1        0.0179
      6 C          63.4558   90.4521   12.2572 C.2     1  UNL1        0.0955
      7 C          62.8465   91.0891   11.0435 C.2     1  UNL1        0.1049
      8 N          62.2214   90.0055   10.2158 N.2     1  UNL1       -0.2475
      9 C          62.4443   88.6988   10.9179 C.2     1  UNL1        0.0665
     10 C          62.0512   87.2934   10.5714 C.3     1  UNL1        0.1095
     11 C          62.8577   83.6065   11.6245 C.3     1  UNL1        0.2520
     12 O          62.0279   84.7584   11.1401 O.2     1  UNL1       -0.4753
     13 C          64.1855   91.1668   13.3557 C.2     1  UNL1        0.3428
     14 O          63.5087   91.4084   14.6723 O.2     1  UNL1       -0.2448
     15 O          65.5921   91.6400   13.1375 O.3     1  UNL1       -0.4454
     16 C          65.8450   93.0107   12.5832 C.3     1  UNL1        0.2087
     17 C          66.5865   93.1714   11.2893 C.3     1  UNL1        0.0445
     18 C          67.6125   92.1560   10.8817 C.3     1  UNL1        0.0210
     19 C          68.3540   92.3168    9.5877 C.3     1  UNL1        0.0722
     20 N          68.0694   93.4929    8.7013 N.3     1  UNL1       -0.2727
     21 C          67.0433   94.5083    9.1089 C.3     1  UNL1        0.0722
     22 C          66.3019   94.3475   10.4029 C.3     1  UNL1        0.0210
     23 C          67.6378   93.4473    9.4010 C.3     1  UNL1        0.0722
     24 C          66.9672   93.3021   10.5710 C.3     1  UNL1        0.0210
@<TRIPOS>BOND
     1    11    12    1
     2    12     1    1
     3     1     2    2
     4     2     3    1
     5     3     4    1
     6     3     5    2
     7     5     6    1
     8     6    13    1
     9    13    14    2
    10    13    15    1
    11    15    16    1
    12    16    17    1
    13    17    18    1
    14    18    19    1
    15    19    20    1
    16    20    21    1
    17    21    22    1
    18    20    23    1
    19    23    24    1
    20     6     7    2
    21     7     8    1
    22     8     9    2
    23     9    10    1
    24    10     1    1
    25     9     5    1
    26    22    17    1
    27    24    17    1
@<TRIPOS>MOLECULE
*****
 24 27 0 0 0
SMALL
GASTEIGER

@<TRIPOS>ATOM
      1 C          65.5015   91.8204   13.6667 C.2     1  UNL1        0.1219
      2 C          65.1334   90.5177   14.3127 C.2     1  UNL1        0.0285
      3 C          64.1719   89.5885   13.6327 C.2     1  UNL1       -0.0178
      4 C          63.8039   88.2858   14.2788 C.3     1  UNL1        0.0312
      5 C          63.5786   89.9622   12.3067 C.2     1  UNL1        0.0179
      6 C          62.6111   89.2546   11.4049 C.2     1  UNL1        0.0955
      7 C          62.3812   90.1200   10.2015 C.2     1  UNL1        0.1049
      8 N          63.2066   91.3625   10.3596 N.2     1  UNL1       -0.2475
      9 C          63.9466   91.2649   11.6607 C.2     1  UNL1        0.0665
     10 C          64.9080   92.1941   12.3406 C.3     1  UNL1        0.1095
     11 C          67.4019   92.2239   15.3916 C.3     1  UNL1        0.2520
     12 O          66.4629   92.7496   14.3466 O.2     1  UNL1       -0.4753
     13 C          61.9837   87.9165   11.6614 C.2     1  UNL1        0.3428
     14 O          60.4904   87.7872   11.7202 O.2     1  UNL1       -0.2448
     15 O          62.8495   86.7077   11.8592 O.3     1  UNL1       -0.4454
     16 C          62.3083   85.3406   11.5621 C.3     1  UNL1        0.2087
     17 C          62.6381   84.1905   12.4668 C.3     1  UNL1        0.0445
     18 C          62.7873   82.8096   11.9004 C.3     1  UNL1        0.0210
     19 C          63.1170   81.6595   12.8052 C.3     1  UNL1        0.0722
     20 N          63.2976   81.8904   14.2763 N.3     1  UNL1       -0.2727
     21 C          63.1484   83.2713   14.8426 C.3     1  UNL1        0.0722
     22 C          62.8186   84.4214   13.9378 C.3     1  UNL1        0.0210
     23 C          63.1176   82.5517   13.8201 C.3     1  UNL1        0.0722
     24 C          62.8194   83.5917   13.0021 C.3     1  UNL1        0.0210
@<TRIPOS>BOND
     1    11    12    1
     2    12     1    1
     3     1     2    2
     4     2     3    1
     5     3     4    1
     6     3     5    2
     7     5     6    1
     8     6    13    1
     9    13    14    2
    10    13    15    1
    11    15    16    1
    12    16    17    1
    13    17    18    1
    14    18    19    1
    15    19    20    1
    16    20    21    1
    17    21    22    1
    18    20    23    1
    19    23    24    1
    20     6     7    2
    21     7     8    1
    22     8     9    2
    23     9    10    1
    24    10     1    1
    25     9     5    1
    26    22    17    1
    27    24    17    1
@<TRIPOS>MOLECULE
*****
 24 27 0 0 0
SMALL
GASTEIGER

@<TRIPOS>ATOM
      1 C          62.9431   84.9895   12.3950 C.2     1  UNL1        0.1219
      2 C          62.3762   85.7034   11.2037 C.2     1  UNL1        0.0285
      3 C          62.4550   87.1989   11.1180 C.2     1  UNL1       -0.0178
      4 C          61.8880   87.9127    9.9268 C.3     1  UNL1        0.0312
      5 C          63.1008   87.9805   12.2234 C.2     1  UNL1        0.0179
      6 C          63.3235   89.4514   12.4152 C.2     1  UNL1        0.0955
      7 C          64.0281   89.6467   13.7250 C.2     1  UNL1        0.1049
      8 N          64.2409   88.2964   14.3426 N.2     1  UNL1       -0.2475
      9 C          63.6678   87.2667   13.4146 C.2     1  UNL1        0.0665
     10 C          63.5889   85.7712   13.5004 C.3     1  UNL1        0.1095
     11 C          63.4474   82.7790   13.6633 C.3     1  UNL1        0.2520
     12 O          62.8643   83.4941   12.4808 O.2     1  UNL1       -0.4753
     13 C          62.9135   90.5366   11.4642 C.2     1  UNL1        0.3428
     14 O          61.4594   90.8350   11.2486 O.2     1  UNL1       -0.2448
     15 O          63.9577   91.3233   10.7288 O.3     1  UNL1       -0.4454
     16 C          64.9780   92.1138   11.4931 C.3     1  UNL1        0.2087
     17 C          66.0525   92.8597   10.7591 C.3     1  UNL1        0.0445
     18 C          65.8730   94.3149   10.4423 C.3     1  UNL1        0.0210
     19 C          66.9476   95.0607    9.7082 C.3     1  UNL1        0.0722
     20 N          68.2018   94.3515    9.2910 N.3     1  UNL1       -0.2727
     21 C          68.3813   92.8963    9.6079 C.3     1  UNL1        0.0722
     22 C          67.3067   92.1505   10.3419 C.3     1  UNL1        0.0210
     23 C          67.6408   93.9009    9.6912 C.3     1  UNL1        0.0722
     24 C          66.6692   93.2263   10.3550 C.3     1  UNL1        0.0210
@<TRIPOS>BOND
     1    11    12    1
     2    12     1    1
     3     1     2    2
     4     2     3    1
     5     3     4    1
     6     3     5    2
     7     5     6    1
     8     6    13    1
     9    13    14    2
    10    13    15    1
    11    15    16    1
    12    16    17    1
    13    17    18    1
    14    18    19    1
    15    19    20    1
    16    20    21    1
    17    21    22    1
    18    20    23    1
    19    23    24    1
    20     6     7    2
    21     7     8    1
    22     8     9    2
    23     9    10    1
    24    10     1    1
    25     9     5    1
    26    22    17    1
    27    24    17    1
