@<TRIPOS>MOLECULE
*****
 42 46 0 0 0
SMALL
GASTEIGER

@<TRIPOS>ATOM
      1 C          62.9062   83.5704   12.5536 C.ar    0  UNK0        0.0088
      2 S          63.6312   83.5838   13.8667 S.2     0  UNK0       -0.0722
      3 C          63.9459   85.0102   14.2079 C.ar    0  UNK0        0.1148
      4 N          64.6470   85.6307   15.3798 N.ar    0  UNK0       -0.2173
      5 C          64.8176   87.1193   15.4495 C.ar    0  UNK0        0.2005
      6 N          64.2871   87.9874   14.3473 N.ar    0  UNK0       -0.2092
      7 C          63.5860   87.3670   13.1754 C.ar    0  UNK0        0.1324
      8 C          63.4154   85.8784   13.1057 C.ar    0  UNK0        0.0554
      9 C          62.7729   84.9885   12.0833 C.ar    0  UNK0        0.0064
     10 C          62.1129   85.4379   10.8135 C.ar    0  UNK0       -0.0026
     11 C          60.9268   86.3545   10.8683 C.ar    0  UNK0        0.0029
     12 C          60.2668   86.8038    9.5985 C.ar    0  UNK0        0.0378
     13 C          60.7928   86.3366    8.2738 C.ar    0  UNK0        0.1487
     14 C          61.9789   85.4200    8.2189 C.ar    0  UNK0        0.0876
     15 CL         62.5050   84.9527    6.8942 Cl      0  UNK0       -0.0794
     16 C          62.6389   84.9706    9.4887 C.ar    0  UNK0       -0.0083
     17 C          63.8250   84.0540    9.4337 C.3     0  UNK0        0.0320
     18 O          60.1328   86.7860    7.0040 O.3     0  UNK0       -0.4731
     19 C          59.0540   87.8273    7.0473 C.3     0  UNK0        0.2227
     20 C          59.4094   89.2663    7.2775 C.3     0  UNK0        0.1201
     21 N          59.4642   90.2196    6.1207 N.3     0  UNK0       -0.2672
     22 C          58.2029   90.8476    5.6060 C.3     0  UNK0        0.0898
     23 C          58.2577   91.8009    4.4492 C.3     0  UNK0        0.0897
     24 N          59.5738   92.1262    3.8072 N.3     0  UNK0       -0.2691
     25 C          59.6286   93.0795    2.6504 C.3     0  UNK0        0.0897
     26 C          60.8351   91.4983    4.3219 C.3     0  UNK0        0.0897
     27 C          60.7803   90.5449    5.4787 C.3     0  UNK0        0.0898
     28 C          62.7819   80.9855   12.3238 C.3     0  UNK0        0.0056
     29 C          62.4030   82.3527   11.8367 C.3     0  UNK0        0.0330
     30 N          63.0555   88.2351   12.0731 N.pl3   1  PHE1       -0.3147
     31 H          63.1463   87.9502   11.1352 H       1  PHE1        0.1485
     32 CA         62.3868   89.5374   12.4000 C.3     1  PHE1        0.1115
     33 C          61.0040   89.8189   11.8913 C.2     1  PHE1        0.0685
     34 O          60.8157   90.4869   10.5615 O.co2   1  PHE1       -0.5475
     35 OXT        59.8097   89.4323   12.7123 O.co2   1  PHE1       -0.5475
     36 CB         63.1008   90.5582   13.2356 C.3     1  PHE1        0.0516
     37 CG         64.2806   91.2949   12.6739 C.ar    1  PHE1       -0.0201
     38 CD1        65.4654   91.5890   13.5454 C.ar    1  PHE1       -0.0042
     39 CE1        66.6452   92.3258   12.9836 C.ar    1  PHE1       -0.0003
     40 CZ         66.6400   92.7683   11.5504 C.ar    1  PHE1       -0.0000
     41 CE2        65.4551   92.4741   10.6789 C.ar    1  PHE1       -0.0003
     42 CD2        64.2754   91.7374   11.2406 C.ar    1  PHE1       -0.0042
@<TRIPOS>UNITY_ATOM_ATTR
34 1
charge -1
@<TRIPOS>BOND
     1    28    29    1
     2    29     1    1
     3     1     2   ar
     4     2     3   ar
     5     3     4   ar
     6     4     5   ar
     7     5     6   ar
     8     6     7   ar
     9     7    30    1
    10    30    32    1
    11    32    36    1
    12    36    37    1
    13    37    38   ar
    14    38    39   ar
    15    39    40   ar
    16    40    41   ar
    17    41    42   ar
    18    32    33    1
    19    33    34   ar
    20    33    35   ar
    21     7     8   ar
    22     8     9   ar
    23     9    10    1
    24    10    11   ar
    25    11    12   ar
    26    12    13   ar
    27    13    18    1
    28    18    19    1
    29    19    20    1
    30    20    21    1
    31    21    22    1
    32    22    23    1
    33    23    24    1
    34    24    25    1
    35    24    26    1
    36    26    27    1
    37    13    14   ar
    38    14    15    1
    39    14    16   ar
    40    16    17    1
    41     9     1   ar
    42    16    10   ar
    43     8     3   ar
    44    27    21    1
    45    42    37   ar
    46    30    31    1
@<TRIPOS>MOLECULE
*****
 42 46 0 0 0
SMALL
GASTEIGER

@<TRIPOS>ATOM
      1 C          63.1716   84.5368    9.3303 C.ar    0  UNK0        0.0088
      2 S          62.4453   84.4277    8.0224 S.2     0  UNK0       -0.0722
      3 C          61.2776   85.3685    8.0606 C.ar    0  UNK0        0.1148
      4 N          60.2108   85.6855    7.0550 N.ar    0  UNK0       -0.2173
      5 C          59.1486   86.6932    7.3809 C.ar    0  UNK0        0.2005
      6 N          59.1532   87.3838    8.7124 N.ar    0  UNK0       -0.2092
      7 C          60.2200   87.0668    9.7181 C.ar    0  UNK0        0.1324
      8 C          61.2823   86.0591    9.3921 C.ar    0  UNK0        0.0554
      9 C          62.4528   85.5451   10.1768 C.ar    0  UNK0        0.0064
     10 C          62.8370   85.9656   11.5645 C.ar    0  UNK0       -0.0026
     11 C          63.2456   87.3837   11.8323 C.ar    0  UNK0        0.0029
     12 C          63.6299   87.8042   13.2200 C.ar    0  UNK0        0.0378
     13 C          63.6055   86.8065   14.3398 C.ar    0  UNK0        0.1487
     14 C          63.1968   85.3883   14.0720 C.ar    0  UNK0        0.0876
     15 CL         63.1724   84.3906   15.1917 Cl      0  UNK0       -0.0794
     16 C          62.8126   84.9678   12.6843 C.ar    0  UNK0       -0.0083
     17 C          62.4040   83.5496   12.4165 C.3     0  UNK0        0.0320
     18 O          63.9897   87.2270   15.7275 O.3     0  UNK0       -0.4731
     19 C          63.2714   88.3634   16.3927 C.3     0  UNK0        0.2227
     20 C          63.1726   89.6932   15.7055 C.3     0  UNK0        0.1201
     21 N          64.3525   90.6192   15.6909 N.3     0  UNK0       -0.2672
     22 C          64.3556   91.8439   16.5572 C.3     0  UNK0        0.0898
     23 C          65.5355   92.7699   16.5426 C.3     0  UNK0        0.0897
     24 N          66.7123   92.4714   15.6617 N.3     0  UNK0       -0.2691
     25 C          67.8922   93.3975   15.6470 C.3     0  UNK0        0.0897
     26 C          66.7092   91.2468   14.7954 C.3     0  UNK0        0.0897
     27 C          65.5293   90.3208   14.8100 C.3     0  UNK0        0.0898
     28 C          64.2912   82.3309   10.1242 C.3     0  UNK0        0.0056
     29 C          64.4008   83.7720    9.7227 C.3     0  UNK0        0.0330
     30 N          60.2247   87.7574   11.0496 N.pl3   1  PHE1       -0.3147
     31 H          60.3105   87.2308   11.8770 H       1  PHE1        0.1485
     32 CA         60.0986   89.2504   11.1206 C.3     1  PHE1        0.1115
     33 C          59.1515   89.8773   12.1004 C.2     1  PHE1        0.0685
     34 O          58.6137   91.2546   11.8475 O.co2   1  PHE1       -0.5475
     35 OXT        58.7424   89.1271   13.3332 O.co2   1  PHE1       -0.5475
     36 CB         60.9195   90.1164   10.2117 C.3     1  PHE1        0.0516
     37 CG         62.1809   90.7511   10.7180 C.ar    1  PHE1       -0.0201
     38 CD1        63.1875   91.2962    9.7487 C.ar    1  PHE1       -0.0042
     39 CE1        64.4489   91.9309   10.2550 C.ar    1  PHE1       -0.0003
     40 CZ         64.7035   92.0203   11.7305 C.ar    1  PHE1       -0.0000
     41 CE2        63.6968   91.4751   12.6998 C.ar    1  PHE1       -0.0003
     42 CD2        62.4355   90.8405   12.1935 C.ar    1  PHE1       -0.0042
@<TRIPOS>UNITY_ATOM_ATTR
34 1
charge -1
@<TRIPOS>BOND
     1    28    29    1
     2    29     1    1
     3     1     2   ar
     4     2     3   ar
     5     3     4   ar
     6     4     5   ar
     7     5     6   ar
     8     6     7   ar
     9     7    30    1
    10    30    32    1
    11    32    36    1
    12    36    37    1
    13    37    38   ar
    14    38    39   ar
    15    39    40   ar
    16    40    41   ar
    17    41    42   ar
    18    32    33    1
    19    33    34   ar
    20    33    35   ar
    21     7     8   ar
    22     8     9   ar
    23     9    10    1
    24    10    11   ar
    25    11    12   ar
    26    12    13   ar
    27    13    18    1
    28    18    19    1
    29    19    20    1
    30    20    21    1
    31    21    22    1
    32    22    23    1
    33    23    24    1
    34    24    25    1
    35    24    26    1
    36    26    27    1
    37    13    14   ar
    38    14    15    1
    39    14    16   ar
    40    16    17    1
    41     9     1   ar
    42    16    10   ar
    43     8     3   ar
    44    27    21    1
    45    42    37   ar
    46    30    31    1
@<TRIPOS>MOLECULE
*****
 42 46 0 0 0
SMALL
GASTEIGER

@<TRIPOS>ATOM
      1 C          63.4557   82.0835   11.9731 C.ar    0  UNK0        0.0088
      2 S          63.5311   81.9373   10.4822 S.2     0  UNK0       -0.0722
      3 C          63.2958   83.2870    9.8715 C.ar    0  UNK0        0.1148
      4 N          63.2542   83.7499    8.4454 N.ar    0  UNK0       -0.2173
      5 C          62.9917   85.1933    8.1328 C.ar    0  UNK0        0.2005
      6 N          62.7708   86.1737    9.2463 N.ar    0  UNK0       -0.2092
      7 C          62.8125   85.7108   10.6725 C.ar    0  UNK0        0.1324
      8 C          63.0750   84.2674   10.9851 C.ar    0  UNK0        0.0554
      9 C          63.1738   83.5236   12.2839 C.ar    0  UNK0        0.0064
     10 C          63.0180   84.1160   13.6532 C.ar    0  UNK0       -0.0026
     11 C          61.6635   84.1765   14.2946 C.ar    0  UNK0        0.0029
     12 C          61.5077   84.7688   15.6638 C.ar    0  UNK0        0.0378
     13 C          62.7065   85.3008   16.3917 C.ar    0  UNK0        0.1487
     14 C          64.0611   85.2403   15.7503 C.ar    0  UNK0        0.0876
     15 CL         65.2600   85.7722   16.4781 Cl      0  UNK0       -0.0794
     16 C          64.2169   84.6480   14.3811 C.ar    0  UNK0       -0.0083
     17 C          65.5715   84.5875   13.7397 C.3     0  UNK0        0.0320
     18 O          62.5507   85.8931   17.7610 O.3     0  UNK0       -0.4731
     19 C          62.7179   87.3701   17.9626 C.3     0  UNK0        0.2227
     20 C          62.2372   88.3293   16.9144 C.3     0  UNK0        0.1201
     21 N          63.2119   89.2378   16.2256 N.3     0  UNK0       -0.2672
     22 C          63.3912   90.6477   16.7056 C.3     0  UNK0        0.0898
     23 C          64.3660   91.5562   16.0168 C.3     0  UNK0        0.0897
     24 N          65.1614   91.0549   14.8480 N.3     0  UNK0       -0.2691
     25 C          66.1362   91.9634   14.1593 C.3     0  UNK0        0.0897
     26 C          64.9822   89.6451   14.3681 C.3     0  UNK0        0.0897
     27 C          64.0074   88.7366   15.0569 C.3     0  UNK0        0.0898
     28 C          62.4333   80.2488   13.5025 C.3     0  UNK0        0.0056
     29 C          63.6313   80.9829   12.9770 C.3     0  UNK0        0.0330
     30 N          62.5916   86.6912   11.7860 N.pl3   1  PHE1       -0.3147
     31 H          63.0108   86.5414   12.6641 H       1  PHE1        0.1485
     32 CA         61.7322   87.8999   11.5616 C.3     1  PHE1        0.1115
     33 C          62.2969   89.2725   11.7790 C.2     1  PHE1        0.0685
     34 O          63.2015   89.8830   10.7500 O.co2   1  PHE1       -0.5475
     35 OXT        61.9569   90.0346   13.0255 O.co2   1  PHE1       -0.5475
     36 CB         60.3082   87.7361   11.1198 C.3     1  PHE1        0.0516
     37 CG         59.9402   87.9477    9.6811 C.ar    1  PHE1       -0.0201
     38 CD1        59.4163   86.8035    8.8648 C.ar    1  PHE1       -0.0042
     39 CE1        59.0484   87.0151    7.4261 C.ar    1  PHE1       -0.0003
     40 CZ         59.2043   88.3709    6.8037 C.ar    1  PHE1       -0.0000
     41 CE2        59.7282   89.5152    7.6200 C.ar    1  PHE1       -0.0003
     42 CD2        60.0961   89.3035    9.0586 C.ar    1  PHE1       -0.0042
@<TRIPOS>UNITY_ATOM_ATTR
34 1
charge -1
@<TRIPOS>BOND
     1    28    29    1
     2    29     1    1
     3     1     2   ar
     4     2     3   ar
     5     3     4   ar
     6     4     5   ar
     7     5     6   ar
     8     6     7   ar
     9     7    30    1
    10    30    32    1
    11    32    36    1
    12    36    37    1
    13    37    38   ar
    14    38    39   ar
    15    39    40   ar
    16    40    41   ar
    17    41    42   ar
    18    32    33    1
    19    33    34   ar
    20    33    35   ar
    21     7     8   ar
    22     8     9   ar
    23     9    10    1
    24    10    11   ar
    25    11    12   ar
    26    12    13   ar
    27    13    18    1
    28    18    19    1
    29    19    20    1
    30    20    21    1
    31    21    22    1
    32    22    23    1
    33    23    24    1
    34    24    25    1
    35    24    26    1
    36    26    27    1
    37    13    14   ar
    38    14    15    1
    39    14    16   ar
    40    16    17    1
    41     9     1   ar
    42    16    10   ar
    43     8     3   ar
    44    27    21    1
    45    42    37   ar
    46    30    31    1
@<TRIPOS>MOLECULE
*****
 42 46 0 0 0
SMALL
GASTEIGER

@<TRIPOS>ATOM
      1 C          62.3339   89.6167   10.7710 C.ar    0  UNK0        0.0088
      2 S          61.7621   88.5008    9.9477 S.2     0  UNK0       -0.0722
      3 C          62.0413   87.2100   10.6590 C.ar    0  UNK0        0.1148
      4 N          61.7139   85.7860   10.3199 N.ar    0  UNK0       -0.2173
      5 C          62.1308   84.6802   11.2436 C.ar    0  UNK0        0.2005
      6 N          62.8751   84.9984   12.5065 N.ar    0  UNK0       -0.2092
      7 C          63.2024   86.4224   12.8456 C.ar    0  UNK0        0.1324
      8 C          62.7855   87.5282   11.9218 C.ar    0  UNK0        0.0554
      9 C          62.9664   89.0156   11.9910 C.ar    0  UNK0        0.0064
     10 C          63.6582   89.7696   13.0878 C.ar    0  UNK0       -0.0026
     11 C          65.0225   90.3479   12.8554 C.ar    0  UNK0        0.0029
     12 C          65.7144   91.1019   13.9522 C.ar    0  UNK0        0.0378
     13 C          65.0419   91.2775   15.2814 C.ar    0  UNK0        0.1487
     14 C          63.6776   90.6991   15.5139 C.ar    0  UNK0        0.0876
     15 CL         63.0050   90.8747   16.8431 Cl      0  UNK0       -0.0794
     16 C          62.9857   89.9452   14.4171 C.ar    0  UNK0       -0.0083
     17 C          61.6213   89.3668   14.6496 C.3     0  UNK0        0.0320
     18 O          65.7338   92.0314   16.3782 O.3     0  UNK0       -0.4731
     19 C          67.0125   92.7626   16.0947 C.3     0  UNK0        0.2227
     20 C          67.0695   93.7717   14.9863 C.3     0  UNK0        0.1201
     21 N          67.3297   93.3251   13.5782 N.3     0  UNK0       -0.2672
     22 C          68.3552   92.2649   13.3050 C.3     0  UNK0        0.0898
     23 C          68.6154   91.8183   11.8969 C.3     0  UNK0        0.0897
     24 N          67.8502   92.4319   10.7619 N.3     0  UNK0       -0.2691
     25 C          68.1105   91.9853    9.3538 C.3     0  UNK0        0.0897
     26 C          66.8248   93.4920   11.0351 C.3     0  UNK0        0.0897
     27 C          66.5646   93.9386   12.4432 C.3     0  UNK0        0.0898
     28 C          63.5361   91.8016   10.0422 C.3     0  UNK0        0.0056
     29 C          62.2822   91.0774   10.4334 C.3     0  UNK0        0.0330
     30 N          63.9467   86.7406   14.1085 N.pl3   1  PHE1       -0.3147
     31 H          64.5668   87.5048   14.1351 H       1  PHE1        0.1485
     32 CA         63.7463   85.8944   15.3306 C.3     1  PHE1        0.1115
     33 C          62.9060   86.4021   16.4648 C.2     1  PHE1        0.0685
     34 O          63.3248   87.6303   17.2172 O.co2   1  PHE1       -0.5475
     35 OXT        61.6470   85.6815   16.8466 O.co2   1  PHE1       -0.5475
     36 CB         64.3860   84.5405   15.4187 C.3     1  PHE1        0.0516
     37 CG         63.7749   83.3741   14.7003 C.ar    1  PHE1       -0.0201
     38 CD1        62.3904   82.9175   15.0532 C.ar    1  PHE1       -0.0042
     39 CE1        61.7793   81.7511   14.3348 C.ar    1  PHE1       -0.0003
     40 CZ         62.5528   81.0412   13.2635 C.ar    1  PHE1       -0.0000
     41 CE2        63.9375   81.4978   12.9105 C.ar    1  PHE1       -0.0003
     42 CD2        64.5485   82.6642   13.6290 C.ar    1  PHE1       -0.0042
@<TRIPOS>UNITY_ATOM_ATTR
34 1
charge -1
@<TRIPOS>BOND
     1    28    29    1
     2    29     1    1
     3     1     2   ar
     4     2     3   ar
     5     3     4   ar
     6     4     5   ar
     7     5     6   ar
     8     6     7   ar
     9     7    30    1
    10    30    32    1
    11    32    36    1
    12    36    37    1
    13    37    38   ar
    14    38    39   ar
    15    39    40   ar
    16    40    41   ar
    17    41    42   ar
    18    32    33    1
    19    33    34   ar
    20    33    35   ar
    21     7     8   ar
    22     8     9   ar
    23     9    10    1
    24    10    11   ar
    25    11    12   ar
    26    12    13   ar
    27    13    18    1
    28    18    19    1
    29    19    20    1
    30    20    21    1
    31    21    22    1
    32    22    23    1
    33    23    24    1
    34    24    25    1
    35    24    26    1
    36    26    27    1
    37    13    14   ar
    38    14    15    1
    39    14    16   ar
    40    16    17    1
    41     9     1   ar
    42    16    10   ar
    43     8     3   ar
    44    27    21    1
    45    42    37   ar
    46    30    31    1
@<TRIPOS>MOLECULE
*****
 42 46 0 0 0
SMALL
GASTEIGER

@<TRIPOS>ATOM
      1 C          62.8701   82.9284   12.8398 C.ar    0  UNK0        0.0088
      2 S          63.4756   82.7128   14.1951 S.2     0  UNK0       -0.0722
      3 C          63.8925   84.0489   14.7345 C.ar    0  UNK0        0.1148
      4 N          64.5440   84.4518   16.0242 N.ar    0  UNK0       -0.2173
      5 C          64.8475   85.8961   16.2919 C.ar    0  UNK0        0.2005
      6 N          64.4997   86.9375   15.2699 N.ar    0  UNK0       -0.2092
      7 C          63.8483   86.5347   13.9802 C.ar    0  UNK0        0.1324
      8 C          63.5447   85.0903   13.7125 C.ar    0  UNK0        0.0554
      9 C          62.9128   84.3978   12.5416 C.ar    0  UNK0        0.0064
     10 C          62.4116   85.0587   11.2918 C.ar    0  UNK0       -0.0026
     11 C          61.3181   86.0822   11.3713 C.ar    0  UNK0        0.0029
     12 C          60.8169   86.7431   10.1215 C.ar    0  UNK0        0.0378
     13 C          61.4093   86.3806    8.7921 C.ar    0  UNK0        0.1487
     14 C          62.5030   85.3570    8.7124 C.ar    0  UNK0        0.0876
     15 CL         63.0955   84.9944    7.3830 Cl      0  UNK0       -0.0794
     16 C          63.0041   84.6961    9.9622 C.ar    0  UNK0       -0.0083
     17 C          64.0978   83.6726    9.8825 C.3     0  UNK0        0.0320
     18 O          60.9081   87.0415    7.5423 O.3     0  UNK0       -0.4731
     19 C          59.4368   87.0817    7.2534 C.3     0  UNK0        0.2227
     20 C          58.6772   88.3661    7.4072 C.3     0  UNK0        0.1201
     21 N          58.8861   89.4828    6.4278 N.3     0  UNK0       -0.2672
     22 C          60.2658   89.7933    5.9275 C.3     0  UNK0        0.0898
     23 C          60.4747   90.9100    4.9481 C.3     0  UNK0        0.0897
     24 N          59.3040   91.7163    4.4691 N.3     0  UNK0       -0.2691
     25 C          59.5129   92.8330    3.4897 C.3     0  UNK0        0.0897
     26 C          57.9244   91.4058    4.9693 C.3     0  UNK0        0.0897
     27 C          57.7155   90.2891    5.9487 C.3     0  UNK0        0.0898
     28 C          62.1675   80.4582   12.4472 C.3     0  UNK0        0.0056
     29 C          62.3188   81.8619   11.9406 C.3     0  UNK0        0.0330
     30 N          63.5005   87.5761   12.9583 N.pl3   1  PHE1       -0.3147
     31 H          63.1877   87.3043   12.0652 H       1  PHE1        0.1485
     32 CA         63.6291   89.0317   13.2970 C.3     1  PHE1        0.1115
     33 C          63.9231   89.4505   14.7070 C.2     1  PHE1        0.0685
     34 O          65.2997   89.9153   15.0797 O.co2   1  PHE1       -0.5475
     35 OXT        62.8406   89.4045   15.7443 O.co2   1  PHE1       -0.5475
     36 CB         63.4637   90.0685   12.2256 C.3     1  PHE1        0.0516
     37 CG         62.1708   90.1682   11.4716 C.ar    1  PHE1       -0.0201
     38 CD1        60.8694   90.2088   12.2164 C.ar    1  PHE1       -0.0042
     39 CE1        59.5765   90.3085   11.4624 C.ar    1  PHE1       -0.0003
     40 CZ         59.5850   90.3677    9.9636 C.ar    1  PHE1       -0.0000
     41 CE2        60.8865   90.3271    9.2188 C.ar    1  PHE1       -0.0003
     42 CD2        62.1793   90.2274    9.9728 C.ar    1  PHE1       -0.0042
@<TRIPOS>UNITY_ATOM_ATTR
34 1
charge -1
@<TRIPOS>BOND
     1    28    29    1
     2    29     1    1
     3     1     2   ar
     4     2     3   ar
     5     3     4   ar
     6     4     5   ar
     7     5     6   ar
     8     6     7   ar
     9     7    30    1
    10    30    32    1
    11    32    36    1
    12    36    37    1
    13    37    38   ar
    14    38    39   ar
    15    39    40   ar
    16    40    41   ar
    17    41    42   ar
    18    32    33    1
    19    33    34   ar
    20    33    35   ar
    21     7     8   ar
    22     8     9   ar
    23     9    10    1
    24    10    11   ar
    25    11    12   ar
    26    12    13   ar
    27    13    18    1
    28    18    19    1
    29    19    20    1
    30    20    21    1
    31    21    22    1
    32    22    23    1
    33    23    24    1
    34    24    25    1
    35    24    26    1
    36    26    27    1
    37    13    14   ar
    38    14    15    1
    39    14    16   ar
    40    16    17    1
    41     9     1   ar
    42    16    10   ar
    43     8     3   ar
    44    27    21    1
    45    42    37   ar
    46    30    31    1
