@<TRIPOS>MOLECULE
*****
 28 31 0 0 0
SMALL
GASTEIGER

@<TRIPOS>ATOM
      1 C          63.0937   90.5962   10.8804 C.3     1  UNL1        0.1747
      2 C          63.4757   90.4581   12.3243 C.3     1  UNL1        0.0406
      3 C          64.5572   91.3235   12.9000 C.3     1  UNL1        0.0403
      4 C          64.9393   91.1854   14.3440 C.3     1  UNL1        0.0569
      5 C          64.2398   90.1820   15.2122 C.3     1  UNL1        0.0122
      6 S          66.0207   92.0508   14.9197 S.3     1  UNL1       -0.0816
      7 C          66.7202   93.0543   14.0514 C.2     1  UNL1        0.1482
      8 N          67.8018   93.9197   14.6272 N.pl3   1  UNL1       -0.3380
      9 N          66.3382   93.1924   12.6075 N.2     1  UNL1       -0.2484
     10 C          65.2567   92.3270   12.0317 C.3     1  UNL1        0.1352
     11 C          64.8747   92.4650   10.5878 C.3     1  UNL1        0.1691
     12 O          63.7932   91.5997   10.0121 O.3     1  UNL1       -0.3462
     13 H          68.0525   93.8290   15.5749 H       1  UNL1        0.1442
     14 H          68.2609   94.5783   14.0574 H       1  UNL1        0.1442
     15 C          65.9561   93.3304   11.1635 C.ar    1  UNL1        0.0278
     16 C          65.4366   94.7347   11.0722 C.ar    1  UNL1        0.0021
     17 C          66.1361   95.7381   10.2040 C.ar    1  UNL1        0.0295
     18 C          67.3551   95.3373    9.4271 C.ar    1  UNL1        0.1424
     19 F          68.0546   96.3408    8.5588 F       1  UNL1       -0.2041
     20 C          67.8745   93.9331    9.5184 C.ar    1  UNL1        0.0590
     21 C          67.1750   92.9297   10.3866 C.ar    1  UNL1        0.1402
     22 F          67.6945   91.5255   10.4779 F       1  UNL1       -0.2044
     23 C          60.5066   86.4371    8.9080 C.3     1  UNL1        0.0557
     24 C          60.8230   87.8191    9.3980 C.ar    1  UNL1        0.1008
     25 C          62.1451   88.2837    9.9329 C.ar    1  UNL1        0.0561
     26 C          62.0122   89.7308   10.3046 C.ar    1  UNL1        0.1809
     27 O          60.6078   90.1606    9.9995 O.2     1  UNL1       -0.3556
     28 N          59.8729   88.9791    9.4392 N.ar    1  UNL1       -0.0817
@<TRIPOS>BOND
     1    23    24    1
     2    24    25   ar
     3    25    26   ar
     4     1    26    1
     5     1     2    1
     6     3     2    1
     7     3     4    1
     8     4     5    1
     9     4     6    1
    10     6     7    1
    11     7     8    1
    12     7     9    2
    13     9    10    1
    14    10    15    1
    15    15    16   ar
    16    16    17   ar
    17    17    18   ar
    18    18    19    1
    19    18    20   ar
    20    20    21   ar
    21    21    22    1
    22    10    11    1
    23    11    12    1
    24    26    27   ar
    25    27    28   ar
    26    28    24   ar
    27    12     1    1
    28    10     3    1
    29    21    15   ar
    30     8    13    1
    31     8    14    1
@<TRIPOS>MOLECULE
*****
 28 31 0 0 0
SMALL
GASTEIGER

@<TRIPOS>ATOM
      1 C          65.6382   92.5937   11.2943 C.3     1  UNL1        0.1747
      2 C          65.7735   92.5493   12.7875 C.3     1  UNL1        0.0406
      3 C          64.8418   91.6998   13.5999 C.3     1  UNL1        0.0403
      4 C          64.9770   91.6553   15.0932 C.3     1  UNL1        0.0569
      5 C          66.0440   92.4604   15.7739 C.3     1  UNL1        0.0122
      6 S          64.0453   90.8057   15.9057 S.3     1  UNL1       -0.0816
      7 C          62.9783   90.0007   15.2249 C.2     1  UNL1        0.1482
      8 N          62.0465   89.1511   16.0375 N.pl3   1  UNL1       -0.3380
      9 N          62.8430   90.0451   13.7317 N.2     1  UNL1       -0.2484
     10 C          63.7748   90.8947   12.9192 C.3     1  UNL1        0.1352
     11 C          63.6395   90.9391   11.4260 C.3     1  UNL1        0.1691
     12 O          64.5712   91.7886   10.6135 O.3     1  UNL1       -0.3462
     13 H          62.1353   89.1219   17.0175 H       1  UNL1        0.1442
     14 H          61.3462   88.6227   15.5907 H       1  UNL1        0.1442
     15 C          62.7078   90.0896   12.2385 C.ar    1  UNL1        0.0278
     16 C          61.4987   90.7734   11.6723 C.ar    1  UNL1        0.0021
     17 C          60.4317   89.9683   10.9915 C.ar    1  UNL1        0.0295
     18 C          60.5739   88.4794   10.8770 C.ar    1  UNL1        0.1424
     19 F          59.5069   87.6743   10.1963 F       1  UNL1       -0.2041
     20 C          61.7829   87.7956   11.4432 C.ar    1  UNL1        0.0590
     21 C          62.8499   88.6007   12.1239 C.ar    1  UNL1        0.1402
     22 F          64.0590   87.9170   12.6901 F       1  UNL1       -0.2044
     23 C          67.5686   96.5343    8.3571 C.3     1  UNL1        0.0557
     24 C          67.4572   95.2546    9.1316 C.ar    1  UNL1        0.1008
     25 C          66.2334   94.7580    9.8428 C.ar    1  UNL1        0.0561
     26 C          66.5700   93.4433   10.4817 C.ar    1  UNL1        0.1809
     27 O          68.0018   93.1273   10.1655 O.2     1  UNL1       -0.3556
     28 N          68.5501   94.2467    9.3311 N.ar    1  UNL1       -0.0817
@<TRIPOS>BOND
     1    23    24    1
     2    24    25   ar
     3    25    26   ar
     4     1    26    1
     5     1     2    1
     6     3     2    1
     7     3     4    1
     8     4     5    1
     9     4     6    1
    10     6     7    1
    11     7     8    1
    12     7     9    2
    13     9    10    1
    14    10    15    1
    15    15    16   ar
    16    16    17   ar
    17    17    18   ar
    18    18    19    1
    19    18    20   ar
    20    20    21   ar
    21    21    22    1
    22    10    11    1
    23    11    12    1
    24    26    27   ar
    25    27    28   ar
    26    28    24   ar
    27    12     1    1
    28    10     3    1
    29    21    15   ar
    30     8    13    1
    31     8    14    1
@<TRIPOS>MOLECULE
*****
 28 31 0 0 0
SMALL
GASTEIGER

@<TRIPOS>ATOM
      1 C          61.2629   86.8178   10.2878 C.3     1  UNL1        0.1747
      2 C          61.9833   87.8278   11.1310 C.3     1  UNL1        0.0406
      3 C          62.8351   87.3751   12.2796 C.3     1  UNL1        0.0403
      4 C          63.5555   88.3851   13.1229 C.3     1  UNL1        0.0569
      5 C          63.4240   89.8478   12.8175 C.3     1  UNL1        0.0122
      6 S          64.4074   87.9324   14.2714 S.3     1  UNL1       -0.0816
      7 C          64.5390   86.4697   14.5768 C.2     1  UNL1        0.1482
      8 N          65.3909   86.0170   15.7255 N.pl3   1  UNL1       -0.3380
      9 N          63.8186   85.4597   13.7336 N.2     1  UNL1       -0.2484
     10 C          62.9667   85.9124   12.5850 C.3     1  UNL1        0.1352
     11 C          62.2464   84.9024   11.7418 C.3     1  UNL1        0.1691
     12 O          61.3945   85.3551   10.5932 O.3     1  UNL1       -0.3462
     13 H          65.8637   86.6799   16.2789 H       1  UNL1        0.1442
     14 H          65.4773   85.0570   15.9259 H       1  UNL1        0.1442
     15 C          63.0983   84.4497   12.8904 C.ar    1  UNL1        0.0278
     16 C          64.0013   83.5881   12.0583 C.ar    1  UNL1        0.0021
     17 C          64.1328   82.1254   12.3637 C.ar    1  UNL1        0.0295
     18 C          63.3614   81.5244   13.5011 C.ar    1  UNL1        0.1424
     19 F          63.4929   80.0617   13.8065 F       1  UNL1       -0.2041
     20 C          62.4584   82.3860   14.3331 C.ar    1  UNL1        0.0590
     21 C          62.3268   83.8487   14.0277 C.ar    1  UNL1        0.1402
     22 F          61.4238   84.7103   14.8596 F       1  UNL1       -0.2044
     23 C          59.1415   89.7920    6.4753 C.3     1  UNL1        0.0557
     24 C          59.4359   88.6376    7.3867 C.ar    1  UNL1        0.1008
     25 C          60.4537   88.6214    8.4885 C.ar    1  UNL1        0.0561
     26 C          60.4110   87.2705    9.1392 C.ar    1  UNL1        0.1809
     27 O          59.3668   86.4518    8.4395 O.2     1  UNL1       -0.3556
     28 N          58.7642   87.2967    7.3565 N.ar    1  UNL1       -0.0817
@<TRIPOS>BOND
     1    23    24    1
     2    24    25   ar
     3    25    26   ar
     4     1    26    1
     5     1     2    1
     6     3     2    1
     7     3     4    1
     8     4     5    1
     9     4     6    1
    10     6     7    1
    11     7     8    1
    12     7     9    2
    13     9    10    1
    14    10    15    1
    15    15    16   ar
    16    16    17   ar
    17    17    18   ar
    18    18    19    1
    19    18    20   ar
    20    20    21   ar
    21    21    22    1
    22    10    11    1
    23    11    12    1
    24    26    27   ar
    25    27    28   ar
    26    28    24   ar
    27    12     1    1
    28    10     3    1
    29    21    15   ar
    30     8    13    1
    31     8    14    1
@<TRIPOS>MOLECULE
*****
 28 31 0 0 0
SMALL
GASTEIGER

@<TRIPOS>ATOM
      1 C          63.0304   88.9466   12.7951 C.3     1  UNL1        0.1747
      2 C          62.0084   89.4178   11.8034 C.3     1  UNL1        0.0406
      3 C          61.4649   88.4677   10.7777 C.3     1  UNL1        0.0403
      4 C          60.4429   88.9389    9.7859 C.3     1  UNL1        0.0569
      5 C          59.9645   90.3602    9.8198 C.3     1  UNL1        0.0122
      6 S          59.8995   87.9889    8.7602 S.3     1  UNL1       -0.0816
      7 C          60.3779   86.5676    8.7263 C.2     1  UNL1        0.1482
      8 N          59.8344   85.6176    7.7006 N.pl3   1  UNL1       -0.3380
      9 N          61.3999   86.0964    9.7180 N.2     1  UNL1       -0.2484
     10 C          61.9434   87.0465   10.7438 C.3     1  UNL1        0.1352
     11 C          62.9654   86.5753   11.7355 C.3     1  UNL1        0.1691
     12 O          63.5088   87.5253   12.7611 O.3     1  UNL1       -0.3462
     13 H          59.1637   85.9269    7.0497 H       1  UNL1        0.1442
     14 H          60.1484   84.6848    7.6783 H       1  UNL1        0.1442
     15 C          62.4219   85.6253   10.7098 C.ar    1  UNL1        0.0278
     16 C          62.1021   84.6989   11.8455 C.ar    1  UNL1        0.0021
     17 C          62.5805   83.2777   11.8116 C.ar    1  UNL1        0.0295
     18 C          63.3788   82.7828   10.6419 C.ar    1  UNL1        0.1424
     19 F          63.8573   81.3615   10.6080 F       1  UNL1       -0.2041
     20 C          63.6986   83.7091    9.5064 C.ar    1  UNL1        0.0590
     21 C          63.2201   85.1304    9.5403 C.ar    1  UNL1        0.1402
     22 F          63.5399   86.0567    8.4047 F       1  UNL1       -0.2044
     23 C          66.1926   92.3348   15.3252 C.3     1  UNL1        0.0557
     24 C          65.0274   91.4540   14.9837 C.ar    1  UNL1        0.1008
     25 C          64.8919   90.6095   13.7515 C.ar    1  UNL1        0.0561
     26 C          63.5739   89.8966   13.8208 C.ar    1  UNL1        0.1809
     27 O          62.8949   90.3006   15.0959 O.2     1  UNL1       -0.3556
     28 N          63.7932   91.2631   15.8146 N.ar    1  UNL1       -0.0817
@<TRIPOS>BOND
     1    23    24    1
     2    24    25   ar
     3    25    26   ar
     4     1    26    1
     5     1     2    1
     6     3     2    1
     7     3     4    1
     8     4     5    1
     9     4     6    1
    10     6     7    1
    11     7     8    1
    12     7     9    2
    13     9    10    1
    14    10    15    1
    15    15    16   ar
    16    16    17   ar
    17    17    18   ar
    18    18    19    1
    19    18    20   ar
    20    20    21   ar
    21    21    22    1
    22    10    11    1
    23    11    12    1
    24    26    27   ar
    25    27    28   ar
    26    28    24   ar
    27    12     1    1
    28    10     3    1
    29    21    15   ar
    30     8    13    1
    31     8    14    1
@<TRIPOS>MOLECULE
*****
 28 31 0 0 0
SMALL
GASTEIGER

@<TRIPOS>ATOM
      1 C          63.0808   90.6280   11.4199 C.3     1  UNL1        0.1747
      2 C          63.4744   90.6566   12.8670 C.3     1  UNL1        0.0406
      3 C          64.6811   91.4349   13.3008 C.3     1  UNL1        0.0403
      4 C          65.0748   91.4635   14.7479 C.3     1  UNL1        0.0569
      5 C          64.2618   90.7138   15.7613 C.3     1  UNL1        0.0122
      6 S          66.2814   92.2418   15.1817 S.3     1  UNL1       -0.0816
      7 C          67.0944   92.9915   14.1683 C.2     1  UNL1        0.1482
      8 N          68.3012   93.7699   14.6021 N.pl3   1  UNL1       -0.3380
      9 N          66.7008   92.9630   12.7212 N.2     1  UNL1       -0.2484
     10 C          65.4941   92.1846   12.2874 C.3     1  UNL1        0.1352
     11 C          65.1004   92.1560   10.8403 C.3     1  UNL1        0.1691
     12 O          63.8938   91.3777   10.4065 O.3     1  UNL1       -0.3462
     13 H          68.5595   93.7887   15.5519 H       1  UNL1        0.1442
     14 H          68.8348   94.2620   13.9370 H       1  UNL1        0.1442
     15 C          66.3071   92.9343   11.2740 C.ar    1  UNL1        0.0278
     16 C          67.2760   92.1983   10.3967 C.ar    1  UNL1        0.0021
     17 C          68.0890   92.9481    9.3833 C.ar    1  UNL1        0.0295
     18 C          67.9331   94.4338    9.2472 C.ar    1  UNL1        0.1424
     19 F          68.7461   95.1835    8.2339 F       1  UNL1       -0.2041
     20 C          66.9642   95.1697   10.1245 C.ar    1  UNL1        0.0590
     21 C          66.1512   94.4199   11.1379 C.ar    1  UNL1        0.1402
     22 F          65.1824   95.1559   12.0152 F       1  UNL1       -0.2044
     23 C          59.5161   88.1528    8.4120 C.3     1  UNL1        0.0557
     24 C          60.2356   88.7119    9.6035 C.ar    1  UNL1        0.1008
     25 C          61.5181   89.4892    9.5742 C.ar    1  UNL1        0.0561
     26 C          61.8741   89.8496   10.9861 C.ar    1  UNL1        0.1809
     27 O          60.8116   89.2950   11.8880 O.2     1  UNL1       -0.3556
     28 N          59.7989   88.5919   11.0336 N.ar    1  UNL1       -0.0817
@<TRIPOS>BOND
     1    23    24    1
     2    24    25   ar
     3    25    26   ar
     4     1    26    1
     5     1     2    1
     6     3     2    1
     7     3     4    1
     8     4     5    1
     9     4     6    1
    10     6     7    1
    11     7     8    1
    12     7     9    2
    13     9    10    1
    14    10    15    1
    15    15    16   ar
    16    16    17   ar
    17    17    18   ar
    18    18    19    1
    19    18    20   ar
    20    20    21   ar
    21    21    22    1
    22    10    11    1
    23    11    12    1
    24    26    27   ar
    25    27    28   ar
    26    28    24   ar
    27    12     1    1
    28    10     3    1
    29    21    15   ar
    30     8    13    1
    31     8    14    1
@<TRIPOS>MOLECULE
*****
 28 31 0 0 0
SMALL
GASTEIGER

@<TRIPOS>ATOM
      1 C          63.6775   88.3373   13.5683 C.3     1  UNL1        0.1747
      2 C          63.9410   87.0225   14.2405 C.3     1  UNL1        0.0406
      3 C          63.6171   85.7402   13.5328 C.3     1  UNL1        0.0403
      4 C          63.8806   84.4253   14.2049 C.3     1  UNL1        0.0569
      5 C          64.4680   84.3928   15.5847 C.3     1  UNL1        0.0122
      6 S          63.5567   83.1431   13.4972 S.3     1  UNL1       -0.0816
      7 C          62.9694   83.1756   12.1173 C.2     1  UNL1        0.1482
      8 N          62.6455   81.8933   11.4096 N.pl3   1  UNL1       -0.3380
      9 N          62.7059   84.4905   11.4452 N.2     1  UNL1       -0.2484
     10 C          63.0298   85.7728   12.1529 C.3     1  UNL1        0.1352
     11 C          62.7663   87.0876   11.4808 C.3     1  UNL1        0.1691
     12 O          63.0902   88.3699   12.1885 O.3     1  UNL1       -0.3462
     13 H          62.8185   81.0303   11.8508 H       1  UNL1        0.1442
     14 H          62.2600   81.9147   10.5040 H       1  UNL1        0.1442
     15 C          62.4424   85.8054   10.7731 C.ar    1  UNL1        0.0278
     16 C          63.2177   85.2511    9.6147 C.ar    1  UNL1        0.0021
     17 C          62.6304   85.2837    8.2348 C.ar    1  UNL1        0.0295
     18 C          61.2677   85.8705    8.0134 C.ar    1  UNL1        0.1424
     19 F          60.6804   85.9030    6.6335 F       1  UNL1       -0.2041
     20 C          60.4925   86.4247    9.1718 C.ar    1  UNL1        0.0590
     21 C          61.0799   86.3921   10.5516 C.ar    1  UNL1        0.1402
     22 F          60.3046   86.9463   11.7100 F       1  UNL1       -0.2044
     23 C          66.2479   92.6267   15.2639 C.3     1  UNL1        0.0557
     24 C          65.1829   91.5913   15.0554 C.ar    1  UNL1        0.1008
     25 C          65.2970   90.3707   14.1910 C.ar    1  UNL1        0.0561
     26 C          64.0014   89.6196   14.2761 C.ar    1  UNL1        0.1809
     27 O          63.0865   90.3760   15.1930 O.2     1  UNL1       -0.3556
     28 N          63.8167   91.5945   15.6747 N.ar    1  UNL1       -0.0817
@<TRIPOS>BOND
     1    23    24    1
     2    24    25   ar
     3    25    26   ar
     4     1    26    1
     5     1     2    1
     6     3     2    1
     7     3     4    1
     8     4     5    1
     9     4     6    1
    10     6     7    1
    11     7     8    1
    12     7     9    2
    13     9    10    1
    14    10    15    1
    15    15    16   ar
    16    16    17   ar
    17    17    18   ar
    18    18    19    1
    19    18    20   ar
    20    20    21   ar
    21    21    22    1
    22    10    11    1
    23    11    12    1
    24    26    27   ar
    25    27    28   ar
    26    28    24   ar
    27    12     1    1
    28    10     3    1
    29    21    15   ar
    30     8    13    1
    31     8    14    1
@<TRIPOS>MOLECULE
*****
 28 31 0 0 0
SMALL
GASTEIGER

@<TRIPOS>ATOM
      1 C          61.7983   86.9323   10.8029 C.3     1  UNL1        0.1747
      2 C          62.6078   87.3890   11.9802 C.3     1  UNL1        0.0406
      3 C          63.2865   86.3814   12.8599 C.3     1  UNL1        0.0403
      4 C          64.0961   86.8381   14.0373 C.3     1  UNL1        0.0569
      5 C          64.2270   88.3025   14.3348 C.3     1  UNL1        0.0122
      6 S          64.7748   85.8305   14.9170 S.3     1  UNL1       -0.0816
      7 C          64.6439   84.3661   14.6195 C.2     1  UNL1        0.1482
      8 N          65.3227   83.3584   15.4994 N.pl3   1  UNL1       -0.3380
      9 N          63.8344   83.9094   13.4423 N.2     1  UNL1       -0.2484
     10 C          63.1557   84.9170   12.5624 C.3     1  UNL1        0.1352
     11 C          62.3461   84.4603   11.3852 C.3     1  UNL1        0.1691
     12 O          61.6674   85.4679   10.5054 O.3     1  UNL1       -0.3462
     13 H          65.8540   83.6582   16.2721 H       1  UNL1        0.1442
     14 H          65.2368   82.3973   15.3041 H       1  UNL1        0.1442
     15 C          63.0248   83.4527   12.2649 C.ar    1  UNL1        0.0278
     16 C          62.1907   82.5784   13.1538 C.ar    1  UNL1        0.0021
     17 C          62.0598   81.1140   12.8562 C.ar    1  UNL1        0.0295
     18 C          62.7631   80.5239   11.6699 C.ar    1  UNL1        0.1424
     19 F          62.6322   79.0596   11.3724 F       1  UNL1       -0.2041
     20 C          63.5971   81.3982   10.7811 C.ar    1  UNL1        0.0590
     21 C          63.7280   82.8626   11.0786 C.ar    1  UNL1        0.1402
     22 F          64.5620   83.7369   10.1899 F       1  UNL1       -0.2044
     23 C          59.1743   89.1298    6.7822 C.3     1  UNL1        0.0557
     24 C          59.9134   88.9500    8.0749 C.ar    1  UNL1        0.1008
     25 C          60.4590   87.6577    8.6063 C.ar    1  UNL1        0.0561
     26 C          61.1196   87.9400    9.9231 C.ar    1  UNL1        0.1809
     27 O          60.9823   89.4067   10.2056 O.2     1  UNL1       -0.3556
     28 N          60.2368   90.0310    9.0634 N.ar    1  UNL1       -0.0817
@<TRIPOS>BOND
     1    23    24    1
     2    24    25   ar
     3    25    26   ar
     4     1    26    1
     5     1     2    1
     6     3     2    1
     7     3     4    1
     8     4     5    1
     9     4     6    1
    10     6     7    1
    11     7     8    1
    12     7     9    2
    13     9    10    1
    14    10    15    1
    15    15    16   ar
    16    16    17   ar
    17    17    18   ar
    18    18    19    1
    19    18    20   ar
    20    20    21   ar
    21    21    22    1
    22    10    11    1
    23    11    12    1
    24    26    27   ar
    25    27    28   ar
    26    28    24   ar
    27    12     1    1
    28    10     3    1
    29    21    15   ar
    30     8    13    1
    31     8    14    1
@<TRIPOS>MOLECULE
*****
 28 31 0 0 0
SMALL
GASTEIGER

@<TRIPOS>ATOM
      1 C          64.3351   88.5352   14.4087 C.3     1  UNL1        0.1747
      2 C          63.7576   89.1102   13.1495 C.3     1  UNL1        0.0406
      3 C          64.2525   90.4278   12.6308 C.3     1  UNL1        0.0403
      4 C          63.6750   91.0028   11.3715 C.3     1  UNL1        0.0569
      5 C          62.6026   90.2603   10.6309 C.3     1  UNL1        0.0122
      6 S          64.1699   92.3204   10.8528 S.3     1  UNL1       -0.0816
      7 C          65.2424   93.0629   11.5934 C.2     1  UNL1        0.1482
      8 N          65.7373   94.3806   11.0747 N.pl3   1  UNL1       -0.3380
      9 N          65.8199   92.4879   12.8527 N.2     1  UNL1       -0.2484
     10 C          65.3250   91.1703   13.3714 C.3     1  UNL1        0.1352
     11 C          65.9025   90.5953   14.6307 C.3     1  UNL1        0.1691
     12 O          65.4076   89.2778   15.1493 O.3     1  UNL1       -0.3462
     13 H          65.3582   94.7579   10.2481 H       1  UNL1        0.1442
     14 H          66.4412   94.8679   11.5607 H       1  UNL1        0.1442
     15 C          66.3974   91.9129   14.1120 C.ar    1  UNL1        0.0278
     16 C          66.0632   92.6523   15.3736 C.ar    1  UNL1        0.0021
     17 C          67.1357   93.3948   16.1142 C.ar    1  UNL1        0.0295
     18 C          68.5423   93.3980   15.5932 C.ar    1  UNL1        0.1424
     19 F          69.6148   94.1405   16.3338 F       1  UNL1       -0.2041
     20 C          68.8765   92.6586   14.3316 C.ar    1  UNL1        0.0590
     21 C          67.8040   91.9160   13.5910 C.ar    1  UNL1        0.1402
     22 F          68.1381   91.1767   12.3294 F       1  UNL1       -0.2044
     23 C          63.3536   83.3673   14.8672 C.3     1  UNL1        0.0557
     24 C          63.3891   84.8421   15.1382 C.ar    1  UNL1        0.1008
     25 C          64.0516   85.8803   14.2818 C.ar    1  UNL1        0.0561
     26 C          63.8402   87.2176   14.9275 C.ar    1  UNL1        0.1809
     27 O          63.0471   87.0060   16.1829 O.2     1  UNL1       -0.3556
     28 N          62.7683   85.5379   16.3132 N.ar    1  UNL1       -0.0817
@<TRIPOS>BOND
     1    23    24    1
     2    24    25   ar
     3    25    26   ar
     4     1    26    1
     5     1     2    1
     6     3     2    1
     7     3     4    1
     8     4     5    1
     9     4     6    1
    10     6     7    1
    11     7     8    1
    12     7     9    2
    13     9    10    1
    14    10    15    1
    15    15    16   ar
    16    16    17   ar
    17    17    18   ar
    18    18    19    1
    19    18    20   ar
    20    20    21   ar
    21    21    22    1
    22    10    11    1
    23    11    12    1
    24    26    27   ar
    25    27    28   ar
    26    28    24   ar
    27    12     1    1
    28    10     3    1
    29    21    15   ar
    30     8    13    1
    31     8    14    1
@<TRIPOS>MOLECULE
*****
 28 31 0 0 0
SMALL
GASTEIGER

@<TRIPOS>ATOM
      1 C          64.3672   90.1142   14.0960 C.3     1  UNL1        0.1747
      2 C          64.5615   88.6664   14.4366 C.3     1  UNL1        0.0406
      3 C          63.8788   87.6066   13.6238 C.3     1  UNL1        0.0403
      4 C          64.0731   86.1587   13.9645 C.3     1  UNL1        0.0569
      5 C          64.9500   85.7707   15.1179 C.3     1  UNL1        0.0122
      6 S          63.3904   85.0989   13.1517 S.3     1  UNL1       -0.0816
      7 C          62.5134   85.4869   11.9982 C.2     1  UNL1        0.1482
      8 N          61.8307   84.4269   11.1854 N.pl3   1  UNL1       -0.3380
      9 N          62.3191   86.9347   11.6576 N.2     1  UNL1       -0.2484
     10 C          63.0018   87.9946   12.4704 C.3     1  UNL1        0.1352
     11 C          62.8075   89.4424   12.1298 C.3     1  UNL1        0.1691
     12 O          63.4902   90.5022   12.9425 O.3     1  UNL1       -0.3462
     13 H          61.9582   83.4767   11.4090 H       1  UNL1        0.1442
     14 H          61.2551   84.6816   10.4284 H       1  UNL1        0.1442
     15 C          62.1249   88.3825   11.3170 C.ar    1  UNL1        0.0278
     16 C          62.5016   87.9834    9.9209 C.ar    1  UNL1        0.0021
     17 C          61.6246   88.3714    8.7675 C.ar    1  UNL1        0.0295
     18 C          60.3709   89.1585    9.0101 C.ar    1  UNL1        0.1424
     19 F          59.4940   89.5465    7.8567 F       1  UNL1       -0.2041
     20 C          59.9943   89.5576   10.4061 C.ar    1  UNL1        0.0590
     21 C          60.8712   89.1696   11.5595 C.ar    1  UNL1        0.1402
     22 F          60.4946   89.5688   12.9555 F       1  UNL1       -0.2044
     23 C          67.9996   93.4886   15.9125 C.3     1  UNL1        0.0557
     24 C          66.7196   92.7252   15.7437 C.ar    1  UNL1        0.1008
     25 C          66.4529   91.6678   14.7138 C.ar    1  UNL1        0.0561
     26 C          65.0499   91.1741   14.9088 C.ar    1  UNL1        0.1809
     27 O          64.4495   91.9265   16.0592 O.2     1  UNL1       -0.3556
     28 N          65.4814   92.8851   16.5752 N.ar    1  UNL1       -0.0817
@<TRIPOS>BOND
     1    23    24    1
     2    24    25   ar
     3    25    26   ar
     4     1    26    1
     5     1     2    1
     6     3     2    1
     7     3     4    1
     8     4     5    1
     9     4     6    1
    10     6     7    1
    11     7     8    1
    12     7     9    2
    13     9    10    1
    14    10    15    1
    15    15    16   ar
    16    16    17   ar
    17    17    18   ar
    18    18    19    1
    19    18    20   ar
    20    20    21   ar
    21    21    22    1
    22    10    11    1
    23    11    12    1
    24    26    27   ar
    25    27    28   ar
    26    28    24   ar
    27    12     1    1
    28    10     3    1
    29    21    15   ar
    30     8    13    1
    31     8    14    1
