@<TRIPOS>MOLECULE
*****
 32 35 0 0 0
SMALL
GASTEIGER

@<TRIPOS>ATOM
      1 C          64.5236   91.1500   12.7008 C.ar    1  UNL1        0.0667
      2 C          64.6392   89.7789   13.2982 C.ar    1  UNL1        0.0304
      3 C          63.5409   88.7776   13.0958 C.ar    1  UNL1        0.0942
      4 CL         63.6565   87.4066   13.6932 Cl      1  UNL1       -0.0790
      5 C          62.3269   89.1473   12.2961 C.ar    1  UNL1        0.1662
      6 C          62.2113   90.5184   11.6987 C.ar    1  UNL1        0.0942
      7 CL         60.9973   90.8880   10.8990 Cl      1  UNL1       -0.0790
      8 C          63.3096   91.5197   11.9010 C.ar    1  UNL1        0.0304
      9 N          65.6220   92.1513   12.9032 N.pl3   1  UNL1       -0.2149
     10 H          66.0994   92.1912   13.7632 H       1  UNL1        0.1737
     11 O          66.4303   94.1102   12.8057 O.2     1  UNL1       -0.1499
     12 S          65.9929   93.0918   11.7950 S.O2    1  UNL1        0.0744
     13 O          65.5556   92.0735   10.7843 O.2     1  UNL1       -0.1499
     14 C          66.3638   94.0323   10.6869 C.ar    1  UNL1        0.1357
     15 C          65.6772   95.3608   10.5693 C.ar    1  UNL1        0.0219
     16 C          66.0481   96.3012    9.4612 C.ar    1  UNL1        0.0128
     17 C          67.1056   95.9133    8.4707 C.ar    1  UNL1        0.0586
     18 CL         67.4765   96.8538    7.3626 Cl      1  UNL1       -0.0822
     19 C          67.7923   94.5849    8.5883 C.ar    1  UNL1        0.0241
     20 C          67.4214   93.6444    9.6964 C.ar    1  UNL1        0.0773
     21 CL         68.1080   92.3160    9.8140 Cl      1  UNL1       -0.0808
     22 O          61.2286   88.1459   12.0937 O.3     1  UNL1       -0.4518
     23 C          61.0492   87.4894   10.7570 C.ar    1  UNL1        0.1455
     24 C          59.7724   87.6800    9.9931 C.ar    1  UNL1        0.0390
     25 C          59.5930   87.0235    8.6564 C.ar    1  UNL1        0.0222
     26 C          60.6903   86.1763    8.0836 C.ar    1  UNL1        0.0815
     27 N          60.5109   85.5197    6.7469 N.ar    1  UNL1       -0.2438
     28 C          61.6082   84.6726    6.1741 C.ar    1  UNL1        0.0988
     29 C          62.8850   84.4820    6.9380 C.ar    1  UNL1        0.0207
     30 C          63.0644   85.1385    8.2747 C.ar    1  UNL1        0.0032
     31 C          61.9671   85.9856    8.8475 C.ar    1  UNL1        0.0207
     32 C          62.1465   86.6422   10.1842 C.ar    1  UNL1        0.0390
@<TRIPOS>BOND
     1    11    12    2
     2    12    13    2
     3    12     9    1
     4     9     1    1
     5     1     2   ar
     6     2     3   ar
     7     3     4    1
     8     3     5   ar
     9     5    22    1
    10    22    23    1
    11    23    24   ar
    12    24    25   ar
    13    25    26   ar
    14    26    27   ar
    15    27    28   ar
    16    28    29   ar
    17    29    30   ar
    18    30    31   ar
    19    31    32   ar
    20     5     6   ar
    21     6     7    1
    22     6     8   ar
    23    12    14    1
    24    14    15   ar
    25    15    16   ar
    26    16    17   ar
    27    17    18    1
    28    17    19   ar
    29    19    20   ar
    30    20    21    1
    31     8     1   ar
    32    20    14   ar
    33    32    23   ar
    34    31    26   ar
    35     9    10    1
@<TRIPOS>MOLECULE
*****
 32 35 0 0 0
SMALL
GASTEIGER

@<TRIPOS>ATOM
      1 C          63.8601   87.4212   14.3722 C.ar    1  UNL1        0.0667
      2 C          64.2325   88.5412   15.2979 C.ar    1  UNL1        0.0304
      3 C          64.2266   89.9571   14.8025 C.ar    1  UNL1        0.0942
      4 CL         64.5990   91.0771   15.7281 Cl      1  UNL1       -0.0790
      5 C          63.8483   90.2529   13.3815 C.ar    1  UNL1        0.1662
      6 C          63.4759   89.1328   12.4557 C.ar    1  UNL1        0.0942
      7 CL         63.0976   89.4286   11.0347 Cl      1  UNL1       -0.0790
      8 C          63.4818   87.7170   12.9511 C.ar    1  UNL1        0.0304
      9 N          63.8660   86.0054   14.8676 N.pl3   1  UNL1       -0.2149
     10 H          63.9759   85.8205   15.8284 H       1  UNL1        0.1737
     11 O          65.1492   84.5108   14.0804 O.2     1  UNL1       -0.1499
     12 S          63.7045   84.8713   13.8992 S.O2    1  UNL1        0.0744
     13 O          62.2599   85.2318   13.7180 O.2     1  UNL1       -0.1499
     14 C          63.5430   83.7372   12.9308 C.ar    1  UNL1        0.1357
     15 C          64.0884   83.8564   11.5385 C.ar    1  UNL1        0.0219
     16 C          63.9269   82.7224   10.5701 C.ar    1  UNL1        0.0128
     17 C          63.2200   81.4691   10.9940 C.ar    1  UNL1        0.0586
     18 CL         63.0585   80.3351   10.0256 Cl      1  UNL1       -0.0822
     19 C          62.6746   81.3499   12.3862 C.ar    1  UNL1        0.0241
     20 C          62.8361   82.4840   13.3546 C.ar    1  UNL1        0.0773
     21 CL         62.2907   82.3648   14.7468 Cl      1  UNL1       -0.0808
     22 O          63.8424   91.6687   12.8861 O.3     1  UNL1       -0.4518
     23 C          65.0117   92.1960   12.1084 C.ar    1  UNL1        0.1455
     24 C          66.3879   91.6577   12.3659 C.ar    1  UNL1        0.0390
     25 C          67.5571   92.1850   11.5883 C.ar    1  UNL1        0.0222
     26 C          67.3502   93.2507   10.5531 C.ar    1  UNL1        0.0815
     27 N          68.5195   93.7780    9.7754 N.ar    1  UNL1       -0.2438
     28 C          68.3126   94.8436    8.7403 C.ar    1  UNL1        0.0988
     29 C          66.9364   95.3819    8.4827 C.ar    1  UNL1        0.0207
     30 C          65.7671   94.8546    9.2604 C.ar    1  UNL1        0.0032
     31 C          65.9741   93.7890   10.2955 C.ar    1  UNL1        0.0207
     32 C          64.8048   93.2616   11.0732 C.ar    1  UNL1        0.0390
@<TRIPOS>BOND
     1    11    12    2
     2    12    13    2
     3    12     9    1
     4     9     1    1
     5     1     2   ar
     6     2     3   ar
     7     3     4    1
     8     3     5   ar
     9     5    22    1
    10    22    23    1
    11    23    24   ar
    12    24    25   ar
    13    25    26   ar
    14    26    27   ar
    15    27    28   ar
    16    28    29   ar
    17    29    30   ar
    18    30    31   ar
    19    31    32   ar
    20     5     6   ar
    21     6     7    1
    22     6     8   ar
    23    12    14    1
    24    14    15   ar
    25    15    16   ar
    26    16    17   ar
    27    17    18    1
    28    17    19   ar
    29    19    20   ar
    30    20    21    1
    31     8     1   ar
    32    20    14   ar
    33    32    23   ar
    34    31    26   ar
    35     9    10    1
@<TRIPOS>MOLECULE
*****
 32 35 0 0 0
SMALL
GASTEIGER

@<TRIPOS>ATOM
      1 C          63.8494   85.4375   15.2248 C.ar    1  UNL1        0.0667
      2 C          63.7921   86.0762   13.8688 C.ar    1  UNL1        0.0304
      3 C          63.5029   87.5426   13.7421 C.ar    1  UNL1        0.0942
      4 CL         63.4455   88.1813   12.3861 Cl      1  UNL1       -0.0790
      5 C          63.2711   88.3703   14.9713 C.ar    1  UNL1        0.1662
      6 C          63.3284   87.7316   16.3274 C.ar    1  UNL1        0.0942
      7 CL         63.0966   88.5593   17.5567 Cl      1  UNL1       -0.0790
      8 C          63.6176   86.2652   16.4541 C.ar    1  UNL1        0.0304
      9 N          64.1386   83.9711   15.3515 N.pl3   1  UNL1       -0.2149
     10 H          64.5298   83.6165   16.1824 H       1  UNL1        0.1737
     11 O          65.2868   83.0074   13.8505 O.2     1  UNL1       -0.1499
     12 S          63.8316   83.0449   14.2121 S.O2    1  UNL1        0.0744
     13 O          62.3763   83.0825   14.5737 O.2     1  UNL1       -0.1499
     14 C          63.5246   82.1188   13.0729 C.ar    1  UNL1        0.1357
     15 C          62.9956   80.7422   13.3470 C.ar    1  UNL1        0.0219
     16 C          62.6886   79.8160   12.2077 C.ar    1  UNL1        0.0128
     17 C          62.9105   80.2665   10.7943 C.ar    1  UNL1        0.0586
     18 CL         62.6035   79.3404    9.6550 Cl      1  UNL1       -0.0822
     19 C          63.4395   81.6431   10.5201 C.ar    1  UNL1        0.0241
     20 C          63.7465   82.5693   11.6594 C.ar    1  UNL1        0.0773
     21 CL         64.2754   83.9459   11.3852 Cl      1  UNL1       -0.0808
     22 O          62.9819   89.8367   14.8446 O.3     1  UNL1       -0.4518
     23 C          64.0091   90.7552   14.2519 C.ar    1  UNL1        0.1455
     24 C          65.1316   91.2730   15.1015 C.ar    1  UNL1        0.0390
     25 C          66.1588   92.1915   14.5088 C.ar    1  UNL1        0.0222
     26 C          66.0635   92.5922   13.0664 C.ar    1  UNL1        0.0815
     27 N          67.0906   93.5107   12.4738 N.ar    1  UNL1       -0.2438
     28 C          66.9953   93.9114   11.0315 C.ar    1  UNL1        0.0988
     29 C          65.8727   93.3936   10.1818 C.ar    1  UNL1        0.0207
     30 C          64.8456   92.4752   10.7745 C.ar    1  UNL1        0.0032
     31 C          64.9409   92.0745   12.2168 C.ar    1  UNL1        0.0207
     32 C          63.9137   91.1559   12.8096 C.ar    1  UNL1        0.0390
@<TRIPOS>BOND
     1    11    12    2
     2    12    13    2
     3    12     9    1
     4     9     1    1
     5     1     2   ar
     6     2     3   ar
     7     3     4    1
     8     3     5   ar
     9     5    22    1
    10    22    23    1
    11    23    24   ar
    12    24    25   ar
    13    25    26   ar
    14    26    27   ar
    15    27    28   ar
    16    28    29   ar
    17    29    30   ar
    18    30    31   ar
    19    31    32   ar
    20     5     6   ar
    21     6     7    1
    22     6     8   ar
    23    12    14    1
    24    14    15   ar
    25    15    16   ar
    26    16    17   ar
    27    17    18    1
    28    17    19   ar
    29    19    20   ar
    30    20    21    1
    31     8     1   ar
    32    20    14   ar
    33    32    23   ar
    34    31    26   ar
    35     9    10    1
@<TRIPOS>MOLECULE
*****
 32 35 0 0 0
SMALL
GASTEIGER

@<TRIPOS>ATOM
      1 C          63.6802   85.3129   15.2579 C.ar    1  UNL1        0.0667
      2 C          63.6694   85.9431   13.8968 C.ar    1  UNL1        0.0304
      3 C          63.4852   87.4253   13.7580 C.ar    1  UNL1        0.0942
      4 CL         63.4745   88.0555   12.3969 Cl      1  UNL1       -0.0790
      5 C          63.3119   88.2772   14.9803 C.ar    1  UNL1        0.1662
      6 C          63.3226   87.6470   16.3415 C.ar    1  UNL1        0.0942
      7 CL         63.1492   88.4990   17.5638 Cl      1  UNL1       -0.0790
      8 C          63.5068   86.1649   16.4803 C.ar    1  UNL1        0.0304
      9 N          63.8644   83.8308   15.3967 N.pl3   1  UNL1       -0.2149
     10 H          64.1410   83.4478   16.2604 H       1  UNL1        0.1737
     11 O          62.1566   82.9323   14.5155 O.2     1  UNL1       -0.1499
     12 S          63.6270   82.9320   14.2194 S.O2    1  UNL1        0.0744
     13 O          65.0975   82.9317   13.9232 O.2     1  UNL1       -0.1499
     14 C          63.3897   82.0333   13.0421 C.ar    1  UNL1        0.1357
     15 C          62.9566   80.6134   13.2577 C.ar    1  UNL1        0.0219
     16 C          62.7193   79.7147   12.0805 C.ar    1  UNL1        0.0128
     17 C          62.9151   80.2358   10.6876 C.ar    1  UNL1        0.0586
     18 CL         62.6778   79.3370    9.5104 Cl      1  UNL1       -0.0822
     19 C          63.3482   81.6556   10.4720 C.ar    1  UNL1        0.0241
     20 C          63.5855   82.5544   11.6493 C.ar    1  UNL1        0.0773
     21 CL         64.0186   83.9742   11.4336 Cl      1  UNL1       -0.0808
     22 O          63.1277   89.7594   14.8415 O.3     1  UNL1       -0.4518
     23 C          64.2389   90.6922   15.2225 C.ar    1  UNL1        0.1455
     24 C          64.0861   91.5951   16.4106 C.ar    1  UNL1        0.0390
     25 C          65.1973   92.5278   16.7916 C.ar    1  UNL1        0.0222
     26 C          66.4614   92.5577   15.9845 C.ar    1  UNL1        0.0815
     27 N          67.5725   93.4905   16.3656 N.ar    1  UNL1       -0.2438
     28 C          68.8365   93.5204   15.5585 C.ar    1  UNL1        0.0988
     29 C          68.9894   92.6175   14.3705 C.ar    1  UNL1        0.0207
     30 C          67.8782   91.6847   13.9895 C.ar    1  UNL1        0.0032
     31 C          66.6142   91.6549   14.7965 C.ar    1  UNL1        0.0207
     32 C          65.5030   90.7221   14.4155 C.ar    1  UNL1        0.0390
@<TRIPOS>BOND
     1    11    12    2
     2    12    13    2
     3    12     9    1
     4     9     1    1
     5     1     2   ar
     6     2     3   ar
     7     3     4    1
     8     3     5   ar
     9     5    22    1
    10    22    23    1
    11    23    24   ar
    12    24    25   ar
    13    25    26   ar
    14    26    27   ar
    15    27    28   ar
    16    28    29   ar
    17    29    30   ar
    18    30    31   ar
    19    31    32   ar
    20     5     6   ar
    21     6     7    1
    22     6     8   ar
    23    12    14    1
    24    14    15   ar
    25    15    16   ar
    26    16    17   ar
    27    17    18    1
    28    17    19   ar
    29    19    20   ar
    30    20    21    1
    31     8     1   ar
    32    20    14   ar
    33    32    23   ar
    34    31    26   ar
    35     9    10    1
@<TRIPOS>MOLECULE
*****
 32 35 0 0 0
SMALL
GASTEIGER

@<TRIPOS>ATOM
      1 C          64.5188   91.3343   12.6971 C.ar    1  UNL1        0.0667
      2 C          64.5702   90.0883   13.5307 C.ar    1  UNL1        0.0304
      3 C          63.6149   88.9643   13.2590 C.ar    1  UNL1        0.0942
      4 CL         63.6663   87.7183   14.0925 Cl      1  UNL1       -0.0790
      5 C          62.6081   89.0862   12.1538 C.ar    1  UNL1        0.1662
      6 C          62.5567   90.3322   11.3201 C.ar    1  UNL1        0.0942
      7 CL         61.5500   90.4541   10.2149 Cl      1  UNL1       -0.0790
      8 C          63.5121   91.4563   11.5918 C.ar    1  UNL1        0.0304
      9 N          65.4742   92.4584   12.9688 N.pl3   1  UNL1       -0.2149
     10 H          65.7977   92.6189   13.8846 H       1  UNL1        0.1737
     11 O          65.3396   92.3842   10.8530 O.2     1  UNL1       -0.1499
     12 S          65.9366   93.3379   11.8450 S.O2    1  UNL1        0.0744
     13 O          66.5335   94.2915   12.8370 O.2     1  UNL1       -0.1499
     14 C          66.3989   94.2173   10.7213 C.ar    1  UNL1        0.1357
     15 C          65.7762   95.5671   10.5203 C.ar    1  UNL1        0.0219
     16 C          66.2386   96.4465    9.3966 C.ar    1  UNL1        0.0128
     17 C          67.3237   95.9763    8.4739 C.ar    1  UNL1        0.0586
     18 CL         67.7860   96.8557    7.3502 Cl      1  UNL1       -0.0822
     19 C          67.9464   94.6266    8.6749 C.ar    1  UNL1        0.0241
     20 C          67.4840   93.7470    9.7986 C.ar    1  UNL1        0.0773
     21 CL         68.1068   92.3973    9.9996 Cl      1  UNL1       -0.0808
     22 O          61.6528   87.9621   11.8821 O.3     1  UNL1       -0.4518
     23 C          62.1612   86.6617   11.3340 C.ar    1  UNL1        0.1455
     24 C          62.4722   86.5343    9.8721 C.ar    1  UNL1        0.0390
     25 C          62.9806   85.2339    9.3239 C.ar    1  UNL1        0.0222
     26 C          63.1781   84.0608   10.2377 C.ar    1  UNL1        0.0815
     27 N          63.6865   82.7604    9.6896 N.ar    1  UNL1       -0.2438
     28 C          63.8839   81.5874   10.6033 C.ar    1  UNL1        0.0988
     29 C          63.5730   81.7148   12.0652 C.ar    1  UNL1        0.0207
     30 C          63.0646   83.0152   12.6133 C.ar    1  UNL1        0.0032
     31 C          62.8671   84.1882   11.6996 C.ar    1  UNL1        0.0207
     32 C          62.3587   85.4886   12.2477 C.ar    1  UNL1        0.0390
@<TRIPOS>BOND
     1    11    12    2
     2    12    13    2
     3    12     9    1
     4     9     1    1
     5     1     2   ar
     6     2     3   ar
     7     3     4    1
     8     3     5   ar
     9     5    22    1
    10    22    23    1
    11    23    24   ar
    12    24    25   ar
    13    25    26   ar
    14    26    27   ar
    15    27    28   ar
    16    28    29   ar
    17    29    30   ar
    18    30    31   ar
    19    31    32   ar
    20     5     6   ar
    21     6     7    1
    22     6     8   ar
    23    12    14    1
    24    14    15   ar
    25    15    16   ar
    26    16    17   ar
    27    17    18    1
    28    17    19   ar
    29    19    20   ar
    30    20    21    1
    31     8     1   ar
    32    20    14   ar
    33    32    23   ar
    34    31    26   ar
    35     9    10    1
@<TRIPOS>MOLECULE
*****
 32 35 0 0 0
SMALL
GASTEIGER

@<TRIPOS>ATOM
      1 C          62.3028   88.9415   11.9290 C.ar    1  UNL1        0.0667
      2 C          62.5259   90.0695   10.9657 C.ar    1  UNL1        0.0304
      3 C          63.5532   91.1203   11.2663 C.ar    1  UNL1        0.0942
      4 CL         63.7762   92.2483   10.3030 Cl      1  UNL1       -0.0790
      5 C          64.3574   91.0433   12.5300 C.ar    1  UNL1        0.1662
      6 C          64.1343   89.9153   13.4934 C.ar    1  UNL1        0.0942
      7 CL         64.9386   89.8382   14.7572 Cl      1  UNL1       -0.0790
      8 C          63.1070   88.8644   13.1929 C.ar    1  UNL1        0.0304
      9 N          61.2755   87.8907   11.6285 N.pl3   1  UNL1       -0.2149
     10 H          60.5436   87.7215   12.2648 H       1  UNL1        0.1737
     11 O          61.3611   88.3697    9.5637 O.2     1  UNL1       -0.1499
     12 S          61.3633   87.0975   10.3583 S.O2    1  UNL1        0.0744
     13 O          61.3655   85.8253   11.1530 O.2     1  UNL1       -0.1499
     14 C          61.4511   86.3043    9.0882 C.ar    1  UNL1        0.1357
     15 C          62.7340   85.6207    8.7181 C.ar    1  UNL1        0.0219
     16 C          62.8219   84.8275    7.4480 C.ar    1  UNL1        0.0128
     17 C          61.6269   84.7179    6.5481 C.ar    1  UNL1        0.0586
     18 CL         61.7147   83.9247    5.2780 Cl      1  UNL1       -0.0822
     19 C          60.3440   85.4015    6.9181 C.ar    1  UNL1        0.0241
     20 C          60.2562   86.1947    8.1883 C.ar    1  UNL1        0.0773
     21 CL         58.9733   86.8783    8.5583 Cl      1  UNL1       -0.0808
     22 O          65.3847   92.0941   12.8306 O.3     1  UNL1       -0.4518
     23 C          66.0978   92.7885   11.7083 C.ar    1  UNL1        0.1455
     24 C          67.2891   92.1439   11.0640 C.ar    1  UNL1        0.0390
     25 C          68.0022   92.8383    9.9418 C.ar    1  UNL1        0.0222
     26 C          67.5239   94.1773    9.4638 C.ar    1  UNL1        0.0815
     27 N          68.2369   94.8716    8.3416 N.ar    1  UNL1       -0.2438
     28 C          67.7586   96.2106    7.8638 C.ar    1  UNL1        0.0988
     29 C          66.5673   96.8552    8.5081 C.ar    1  UNL1        0.0207
     30 C          65.8542   96.1609    9.6303 C.ar    1  UNL1        0.0032
     31 C          66.3325   94.8219   10.1082 C.ar    1  UNL1        0.0207
     32 C          65.6195   94.1275   11.2304 C.ar    1  UNL1        0.0390
@<TRIPOS>BOND
     1    11    12    2
     2    12    13    2
     3    12     9    1
     4     9     1    1
     5     1     2   ar
     6     2     3   ar
     7     3     4    1
     8     3     5   ar
     9     5    22    1
    10    22    23    1
    11    23    24   ar
    12    24    25   ar
    13    25    26   ar
    14    26    27   ar
    15    27    28   ar
    16    28    29   ar
    17    29    30   ar
    18    30    31   ar
    19    31    32   ar
    20     5     6   ar
    21     6     7    1
    22     6     8   ar
    23    12    14    1
    24    14    15   ar
    25    15    16   ar
    26    16    17   ar
    27    17    18    1
    28    17    19   ar
    29    19    20   ar
    30    20    21    1
    31     8     1   ar
    32    20    14   ar
    33    32    23   ar
    34    31    26   ar
    35     9    10    1
@<TRIPOS>MOLECULE
*****
 32 35 0 0 0
SMALL
GASTEIGER

@<TRIPOS>ATOM
      1 C          62.5462   88.0103   11.2757 C.ar    1  UNL1        0.0667
      2 C          63.2346   88.1044   12.6051 C.ar    1  UNL1        0.0304
      3 C          63.8747   89.3932   13.0287 C.ar    1  UNL1        0.0942
      4 CL         64.5631   89.4873   14.3580 Cl      1  UNL1       -0.0790
      5 C          63.8264   90.5878   12.1229 C.ar    1  UNL1        0.1662
      6 C          63.1379   90.4937   10.7935 C.ar    1  UNL1        0.0942
      7 CL         63.0896   91.6884    9.8877 Cl      1  UNL1       -0.0790
      8 C          62.4979   89.2050   10.3699 C.ar    1  UNL1        0.0304
      9 N          61.9061   86.7216   10.8522 N.pl3   1  UNL1       -0.2149
     10 H          61.2076   86.7236   10.1584 H       1  UNL1        0.1737
     11 O          63.1799   85.1216   10.2885 O.2     1  UNL1       -0.1499
     12 S          62.3303   85.4297   11.4857 S.O2    1  UNL1        0.0744
     13 O          61.4807   85.7379   12.6828 O.2     1  UNL1       -0.1499
     14 C          62.7545   84.1380   12.1192 C.ar    1  UNL1        0.1357
     15 C          62.3401   82.8318   11.5091 C.ar    1  UNL1        0.0219
     16 C          62.7642   81.5400   12.1426 C.ar    1  UNL1        0.0128
     17 C          63.6028   81.5543   13.3863 C.ar    1  UNL1        0.0586
     18 CL         64.0269   80.2626   14.0198 Cl      1  UNL1       -0.0822
     19 C          64.0171   82.8605   13.9964 C.ar    1  UNL1        0.0241
     20 C          63.5930   84.1523   13.3629 C.ar    1  UNL1        0.0773
     21 CL         64.0074   85.4584   13.9730 Cl      1  UNL1       -0.0808
     22 O          64.4664   91.8766   12.5465 O.3     1  UNL1       -0.4518
     23 C          65.3836   92.6027   11.6074 C.ar    1  UNL1        0.1455
     24 C          66.6230   91.9283   11.0984 C.ar    1  UNL1        0.0390
     25 C          67.5401   92.6543   10.1594 C.ar    1  UNL1        0.0222
     26 C          67.2178   94.0547    9.7293 C.ar    1  UNL1        0.0815
     27 N          68.1349   94.7807    8.7903 N.ar    1  UNL1       -0.2438
     28 C          67.8126   96.1811    8.3602 C.ar    1  UNL1        0.0988
     29 C          66.5731   96.8555    8.8692 C.ar    1  UNL1        0.0207
     30 C          65.6560   96.1295    9.8082 C.ar    1  UNL1        0.0032
     31 C          65.9784   94.7291   10.2383 C.ar    1  UNL1        0.0207
     32 C          65.0612   94.0030   11.1773 C.ar    1  UNL1        0.0390
@<TRIPOS>BOND
     1    11    12    2
     2    12    13    2
     3    12     9    1
     4     9     1    1
     5     1     2   ar
     6     2     3   ar
     7     3     4    1
     8     3     5   ar
     9     5    22    1
    10    22    23    1
    11    23    24   ar
    12    24    25   ar
    13    25    26   ar
    14    26    27   ar
    15    27    28   ar
    16    28    29   ar
    17    29    30   ar
    18    30    31   ar
    19    31    32   ar
    20     5     6   ar
    21     6     7    1
    22     6     8   ar
    23    12    14    1
    24    14    15   ar
    25    15    16   ar
    26    16    17   ar
    27    17    18    1
    28    17    19   ar
    29    19    20   ar
    30    20    21    1
    31     8     1   ar
    32    20    14   ar
    33    32    23   ar
    34    31    26   ar
    35     9    10    1
@<TRIPOS>MOLECULE
*****
 32 35 0 0 0
SMALL
GASTEIGER

@<TRIPOS>ATOM
      1 C          62.4674   87.7397   10.9086 C.ar    1  UNL1        0.0667
      2 C          62.4116   88.9487   10.0225 C.ar    1  UNL1        0.0304
      3 C          62.8313   90.2875   10.5531 C.ar    1  UNL1        0.0942
      4 CL         62.7755   91.4964    9.6670 Cl      1  UNL1       -0.0790
      5 C          63.3068   90.4173   11.9698 C.ar    1  UNL1        0.1662
      6 C          63.3626   89.2083   12.8560 C.ar    1  UNL1        0.0942
      7 CL         63.8381   89.3381   14.2726 Cl      1  UNL1       -0.0790
      8 C          62.9429   87.8695   12.3254 C.ar    1  UNL1        0.0304
      9 N          62.0477   86.4009   10.3781 N.pl3   1  UNL1       -0.2149
     10 H          61.5266   86.3430    9.5448 H       1  UNL1        0.1737
     11 O          61.4940   85.5317   12.2323 O.2     1  UNL1       -0.1499
     12 S          62.4219   85.1504   11.1172 S.O2    1  UNL1        0.0744
     13 O          63.3497   84.7690   10.0021 O.2     1  UNL1       -0.1499
     14 C          62.7961   83.8999   11.8562 C.ar    1  UNL1        0.1357
     15 C          62.4379   82.5580   11.2894 C.ar    1  UNL1        0.0219
     16 C          62.8121   81.3076   12.0284 C.ar    1  UNL1        0.0128
     17 C          63.5445   81.3988   13.3343 C.ar    1  UNL1        0.0586
     18 CL         63.9187   80.1484   14.0733 Cl      1  UNL1       -0.0822
     19 C          63.9027   82.7406   13.9011 C.ar    1  UNL1        0.0241
     20 C          63.5285   83.9912   13.1621 C.ar    1  UNL1        0.0773
     21 CL         63.8867   85.3329   13.7289 Cl      1  UNL1       -0.0808
     22 O          63.7265   91.7561   12.5003 O.3     1  UNL1       -0.4518
     23 C          65.1476   91.9831   12.9235 C.ar    1  UNL1        0.1455
     24 C          66.2330   92.0677   11.8916 C.ar    1  UNL1        0.0390
     25 C          67.6540   92.2948   12.3147 C.ar    1  UNL1        0.0222
     26 C          67.9897   92.4373   13.7698 C.ar    1  UNL1        0.0815
     27 N          69.4108   92.6644   14.1929 N.ar    1  UNL1       -0.2438
     28 C          69.7464   92.8069   15.6478 C.ar    1  UNL1        0.0988
     29 C          68.6610   92.7223   16.6797 C.ar    1  UNL1        0.0207
     30 C          67.2400   92.4952   16.2566 C.ar    1  UNL1        0.0032
     31 C          66.9043   92.3527   14.8016 C.ar    1  UNL1        0.0207
     32 C          65.4832   92.1256   14.3785 C.ar    1  UNL1        0.0390
@<TRIPOS>BOND
     1    11    12    2
     2    12    13    2
     3    12     9    1
     4     9     1    1
     5     1     2   ar
     6     2     3   ar
     7     3     4    1
     8     3     5   ar
     9     5    22    1
    10    22    23    1
    11    23    24   ar
    12    24    25   ar
    13    25    26   ar
    14    26    27   ar
    15    27    28   ar
    16    28    29   ar
    17    29    30   ar
    18    30    31   ar
    19    31    32   ar
    20     5     6   ar
    21     6     7    1
    22     6     8   ar
    23    12    14    1
    24    14    15   ar
    25    15    16   ar
    26    16    17   ar
    27    17    18    1
    28    17    19   ar
    29    19    20   ar
    30    20    21    1
    31     8     1   ar
    32    20    14   ar
    33    32    23   ar
    34    31    26   ar
    35     9    10    1
@<TRIPOS>MOLECULE
*****
 32 35 0 0 0
SMALL
GASTEIGER

@<TRIPOS>ATOM
      1 C          62.4655   87.7269   10.9030 C.ar    1  UNL1        0.0667
      2 C          62.9522   87.8523   12.3163 C.ar    1  UNL1        0.0304
      3 C          63.3668   89.1911   12.8508 C.ar    1  UNL1        0.0942
      4 CL         63.8535   89.3165   14.2641 Cl      1  UNL1       -0.0790
      5 C          63.2948   90.4046   11.9720 C.ar    1  UNL1        0.1662
      6 C          62.8081   90.2792   10.5586 C.ar    1  UNL1        0.0942
      7 CL         62.7360   91.4927    9.6799 Cl      1  UNL1       -0.0790
      8 C          62.3935   88.9404   10.0241 C.ar    1  UNL1        0.0304
      9 N          62.0509   86.3881   10.3685 N.pl3   1  UNL1       -0.2149
     10 H          61.5355   86.3303    9.5317 H       1  UNL1        0.1737
     11 O          63.3582   84.7585   10.0003 O.2     1  UNL1       -0.1499
     12 S          62.4217   85.1374   11.1090 S.O2    1  UNL1        0.0744
     13 O          61.4851   85.5163   12.2177 O.2     1  UNL1       -0.1499
     14 C          62.7924   83.8867   11.8495 C.ar    1  UNL1        0.1357
     15 C          62.4170   82.5457   11.2918 C.ar    1  UNL1        0.0219
     16 C          62.7877   81.2951   12.0323 C.ar    1  UNL1        0.0128
     17 C          63.5337   81.3853   13.3305 C.ar    1  UNL1        0.0586
     18 CL         63.9044   80.1346   14.0710 Cl      1  UNL1       -0.0822
     19 C          63.9090   82.7262   13.8882 C.ar    1  UNL1        0.0241
     20 C          63.5384   83.9770   13.1477 C.ar    1  UNL1        0.0773
     21 CL         63.9137   85.3179   13.7054 Cl      1  UNL1       -0.0808
     22 O          63.7094   91.7434   12.5065 O.3     1  UNL1       -0.4518
     23 C          65.1299   91.9750   12.9293 C.ar    1  UNL1        0.1455
     24 C          66.2138   92.0689   11.8967 C.ar    1  UNL1        0.0390
     25 C          67.6343   92.3005   12.3194 C.ar    1  UNL1        0.0222
     26 C          67.9708   92.4382   13.7747 C.ar    1  UNL1        0.0815
     27 N          69.3912   92.6698   14.1974 N.ar    1  UNL1       -0.2438
     28 C          69.7277   92.8075   15.6526 C.ar    1  UNL1        0.0988
     29 C          68.6437   92.7135   16.6852 C.ar    1  UNL1        0.0207
     30 C          67.2233   92.4819   16.2625 C.ar    1  UNL1        0.0032
     31 C          66.8868   92.3443   14.8073 C.ar    1  UNL1        0.0207
     32 C          65.4663   92.1127   14.3845 C.ar    1  UNL1        0.0390
@<TRIPOS>BOND
     1    11    12    2
     2    12    13    2
     3    12     9    1
     4     9     1    1
     5     1     2   ar
     6     2     3   ar
     7     3     4    1
     8     3     5   ar
     9     5    22    1
    10    22    23    1
    11    23    24   ar
    12    24    25   ar
    13    25    26   ar
    14    26    27   ar
    15    27    28   ar
    16    28    29   ar
    17    29    30   ar
    18    30    31   ar
    19    31    32   ar
    20     5     6   ar
    21     6     7    1
    22     6     8   ar
    23    12    14    1
    24    14    15   ar
    25    15    16   ar
    26    16    17   ar
    27    17    18    1
    28    17    19   ar
    29    19    20   ar
    30    20    21    1
    31     8     1   ar
    32    20    14   ar
    33    32    23   ar
    34    31    26   ar
    35     9    10    1
