@<TRIPOS>MOLECULE
*****
 39 43 0 0 0
SMALL
GASTEIGER

@<TRIPOS>ATOM
      1 C          63.1241   87.5288   17.3544 C.3     1  UNL1        0.0666
      2 S          62.4437   88.6170   16.5780 S.3     1  UNL1       -0.0756
      3 C          64.5860   91.1881   14.6119 C.ar    1  UNL1        0.1680
      4 N          64.3442   91.9311   15.8924 N.ar    1  UNL1       -0.1282
      5 N          63.5122   91.0584   16.7847 N.ar    1  UNL1       -0.1221
      6 C          63.2399   89.7760   16.0557 C.ar    1  UNL1        0.1932
      7 N          63.9035   89.8561   14.7129 N.ar    1  UNL1       -0.2884
      8 C          63.8875   88.7913   13.6566 C.3     1  UNL1        0.1340
      9 C          67.5439   91.6224   14.8616 C.3     1  UNL1        0.0522
     10 C          66.8512   91.9062   13.5618 C.ar    1  UNL1        0.0624
     11 N          67.6376   92.4072   12.3867 N.ar    1  UNL1       -0.2450
     12 C          66.9450   92.6910   11.0868 C.ar    1  UNL1        0.1338
     13 C          65.4660   92.4738   10.9619 C.ar    1  UNL1        0.0238
     14 C          64.6797   91.9729   12.1370 C.ar    1  UNL1        0.0059
     15 C          65.3723   91.6891   13.4369 C.ar    1  UNL1        0.0495
     16 C          67.7313   93.1920    9.9118 C.2     1  UNL1        0.2605
     17 N          69.1410   92.7257    9.6989 N.am    1  UNL1       -0.3241
     18 O          67.1079   94.1592    8.9496 O.2     1  UNL1       -0.2687
     19 H          69.5502   92.0908   10.3304 H       1  UNL1        0.1453
     20 H          69.6571   93.0545    8.9276 H       1  UNL1        0.1453
     21 C          63.2704   86.1605   16.7576 C.3     1  UNL1        0.0294
     22 C          64.2961   85.9129   15.6915 C.3     1  UNL1        0.0730
     23 N          64.0692   84.8411   14.6668 N.3     1  UNL1       -0.2726
     24 C          64.4718   83.4017   14.7926 C.3     1  UNL1        0.0721
     25 C          64.0513   82.6917   13.5400 C.3     1  UNL1        0.0190
     26 C          63.3889   83.6923   12.6400 C.3     1  UNL1        0.0201
     27 C          63.0940   82.7311   11.5269 C.3     1  UNL1        0.0061
     28 C          62.6914   84.1706   11.4011 C.3     1  UNL1        0.0237
     29 C          63.4000   85.0208   13.3365 C.3     1  UNL1        0.0724
     30 C          62.0564   85.2779   10.6133 C.ar    1  UNL1       -0.0225
     31 C          61.2290   86.3162   11.3114 C.ar    1  UNL1       -0.0043
     32 C          60.5940   87.4234   10.5236 C.ar    1  UNL1        0.0035
     33 C          60.7863   87.4923    9.0376 C.ar    1  UNL1        0.0714
     34 C          61.6136   86.4540    8.3394 C.ar    1  UNL1        0.0035
     35 C          62.2487   85.3467    9.1273 C.ar    1  UNL1       -0.0043
     36 C          60.1512   88.5995    8.2497 C.3     1  UNL1        0.4186
     37 F          59.5161   89.7068    7.4618 F       1  UNL1       -0.1659
     38 F          60.8598   89.6114    9.1006 F       1  UNL1       -0.1659
     39 F          59.4426   87.5876    7.3989 F       1  UNL1       -0.1659
@<TRIPOS>BOND
     1     9    10    1
     2    10    11   ar
     3    11    12   ar
     4    12    16    1
     5    16    17   am
     6    16    18    2
     7    12    13   ar
     8    13    14   ar
     9    14    15   ar
    10    15     3    1
    11     3     4   ar
    12     4     5   ar
    13     5     6   ar
    14     6     2    1
    15     2     1    1
    16     1    21    1
    17    21    22    1
    18    22    23    1
    19    23    24    1
    20    24    25    1
    21    26    25    1
    22    26    27    1
    23    27    28    1
    24    28    30    1
    25    30    31   ar
    26    31    32   ar
    27    32    33   ar
    28    33    36    1
    29    36    37    1
    30    36    38    1
    31    36    39    1
    32    33    34   ar
    33    34    35   ar
    34    26    29    1
    35     6     7   ar
    36     7     8    1
    37    15    10   ar
    38     7     3   ar
    39    29    23    1
    40    28    26    1
    41    35    30   ar
    42    17    19    1
    43    17    20    1
@<TRIPOS>MOLECULE
*****
 39 43 0 0 0
SMALL
GASTEIGER

@<TRIPOS>ATOM
      1 C          63.6824   82.9856   12.6680 C.3     1  UNL1        0.0666
      2 S          63.7738   83.8754   11.4639 S.3     1  UNL1       -0.0756
      3 C          61.3519   86.6319   10.1982 C.ar    1  UNL1        0.1680
      4 N          61.0460   86.6291   11.6667 N.ar    1  UNL1       -0.1282
      5 N          61.9159   85.5961   12.3195 N.ar    1  UNL1       -0.1221
      6 C          62.7597   84.9605   11.2545 C.ar    1  UNL1        0.1932
      7 N          62.4111   85.6006    9.9435 N.ar    1  UNL1       -0.2884
      8 C          63.0156   85.2679    8.6116 C.3     1  UNL1        0.1340
      9 C          61.9009   89.5811   10.1909 C.3     1  UNL1        0.0522
     10 C          60.9858   88.9860    9.1621 C.ar    1  UNL1        0.0624
     11 N          60.3452   89.8657    8.1297 N.ar    1  UNL1       -0.2450
     12 C          59.4301   89.2706    7.1009 C.ar    1  UNL1        0.1338
     13 C          59.1555   87.7959    7.1045 C.ar    1  UNL1        0.0238
     14 C          59.7962   86.9163    8.1369 C.ar    1  UNL1        0.0059
     15 C          60.7113   87.5114    9.1657 C.ar    1  UNL1        0.0495
     16 C          58.7894   90.1501    6.0684 C.2     1  UNL1        0.2605
     17 N          57.2960   90.1812    5.9320 N.am    1  UNL1       -0.3241
     18 O          59.6422   90.9986    5.1724 O.2     1  UNL1       -0.2687
     19 H          56.7362   89.6244    6.5200 H       1  UNL1        0.1453
     20 H          56.8755   90.7585    5.2543 H       1  UNL1        0.1453
     21 C          64.2419   83.4428   13.9826 C.3     1  UNL1        0.0294
     22 C          64.8907   84.7906   14.0936 C.3     1  UNL1        0.0730
     23 N          64.2910   85.8408   14.9809 N.3     1  UNL1       -0.2726
     24 C          63.5145   85.5929   16.2401 C.3     1  UNL1        0.0721
     25 C          63.1062   86.9223   16.8022 C.3     1  UNL1        0.0190
     26 C          63.6303   87.9919   15.8904 C.3     1  UNL1        0.0201
     27 C          63.0887   89.1482   16.6775 C.3     1  UNL1        0.0061
     28 C          63.8652   89.3961   15.4184 C.3     1  UNL1        0.0237
     29 C          64.3626   87.3235   14.7648 C.3     1  UNL1        0.0724
     30 C          64.4492   90.3500   14.4188 C.ar    1  UNL1       -0.0225
     31 C          65.7651   91.0145   14.6962 C.ar    1  UNL1       -0.0043
     32 C          66.3491   91.9683   13.6967 C.ar    1  UNL1        0.0035
     33 C          65.6171   92.2578   12.4198 C.ar    1  UNL1        0.0714
     34 C          64.3011   91.5934   12.1425 C.ar    1  UNL1        0.0035
     35 C          63.7172   90.6395   13.1420 C.ar    1  UNL1       -0.0043
     36 C          66.2010   93.2117   11.4203 C.3     1  UNL1        0.4186
     37 F          66.7850   94.1657   10.4207 F       1  UNL1       -0.1659
     38 F          66.3045   92.0994   10.4192 F       1  UNL1       -0.1659
     39 F          66.0975   94.3240   12.4213 F       1  UNL1       -0.1659
@<TRIPOS>BOND
     1     9    10    1
     2    10    11   ar
     3    11    12   ar
     4    12    16    1
     5    16    17   am
     6    16    18    2
     7    12    13   ar
     8    13    14   ar
     9    14    15   ar
    10    15     3    1
    11     3     4   ar
    12     4     5   ar
    13     5     6   ar
    14     6     2    1
    15     2     1    1
    16     1    21    1
    17    21    22    1
    18    22    23    1
    19    23    24    1
    20    24    25    1
    21    26    25    1
    22    26    27    1
    23    27    28    1
    24    28    30    1
    25    30    31   ar
    26    31    32   ar
    27    32    33   ar
    28    33    36    1
    29    36    37    1
    30    36    38    1
    31    36    39    1
    32    33    34   ar
    33    34    35   ar
    34    26    29    1
    35     6     7   ar
    36     7     8    1
    37    15    10   ar
    38     7     3   ar
    39    29    23    1
    40    28    26    1
    41    35    30   ar
    42    17    19    1
    43    17    20    1
@<TRIPOS>MOLECULE
*****
 39 43 0 0 0
SMALL
GASTEIGER

@<TRIPOS>ATOM
      1 C          62.2722   85.4340   16.3769 C.3     1  UNL1        0.0666
      2 S          63.1089   86.4030   17.1585 S.3     1  UNL1       -0.0756
      3 C          63.8808   89.7169   15.2908 C.ar    1  UNL1        0.1680
      4 N          63.2189   90.2323   16.5344 N.ar    1  UNL1       -0.1282
      5 N          62.8492   89.0537   17.3853 N.ar    1  UNL1       -0.1221
      6 C          63.2826   87.8098   16.6677 C.ar    1  UNL1        0.1932
      7 N          63.9201   88.2196   15.3733 N.ar    1  UNL1       -0.2884
      8 C          64.4959   87.2947   14.3423 C.3     1  UNL1        0.1340
      9 C          62.3347   89.9313   12.7289 C.3     1  UNL1        0.0522
     10 C          63.6372   90.6592   12.8820 C.ar    1  UNL1        0.0624
     11 N          64.1667   91.4944   11.7541 N.ar    1  UNL1       -0.2450
     12 C          65.4692   92.2223   11.9072 C.ar    1  UNL1        0.1338
     13 C          66.2424   92.1152   13.1882 C.ar    1  UNL1        0.0238
     14 C          65.7128   91.2800   14.3161 C.ar    1  UNL1        0.0059
     15 C          64.4103   90.5521   14.1630 C.ar    1  UNL1        0.0495
     16 C          65.9988   93.0575   10.7793 C.2     1  UNL1        0.2605
     17 N          65.3499   94.3687   10.4481 N.am    1  UNL1       -0.3241
     18 O          67.1772   92.5815    9.9826 O.2     1  UNL1       -0.2687
     19 H          64.5764   94.6811   10.9710 H       1  UNL1        0.1453
     20 H          65.6974   94.9168    9.7078 H       1  UNL1        0.1453
     21 C          62.8982   84.2004   15.7968 C.3     1  UNL1        0.0294
     22 C          62.2183   83.4699   14.6769 C.3     1  UNL1        0.0730
     23 N          62.9367   83.2520   13.3783 N.3     1  UNL1       -0.2726
     24 C          64.0025   82.2283   13.1213 C.3     1  UNL1        0.0721
     25 C          64.4399   82.3631   11.6929 C.3     1  UNL1        0.0190
     26 C          63.6445   83.4702   11.0671 C.3     1  UNL1        0.0201
     27 C          64.2758   83.3692    9.7102 C.3     1  UNL1        0.0061
     28 C          63.2100   84.3930    9.9671 C.3     1  UNL1        0.0237
     29 C          62.7154   84.0196   12.1087 C.3     1  UNL1        0.0724
     30 C          62.3438   85.5167    9.4805 C.ar    1  UNL1       -0.0225
     31 C          62.3583   86.8371   10.1921 C.ar    1  UNL1       -0.0043
     32 C          61.4921   87.9609    9.7054 C.ar    1  UNL1        0.0035
     33 C          60.6115   87.7643    8.5072 C.ar    1  UNL1        0.0714
     34 C          60.5970   86.4439    7.7956 C.ar    1  UNL1        0.0035
     35 C          61.4632   85.3201    8.2823 C.ar    1  UNL1       -0.0043
     36 C          59.7453   88.8880    8.0206 C.3     1  UNL1        0.4186
     37 F          58.8790   90.0119    7.5339 F       1  UNL1       -0.1659
     38 F          60.2155   89.7436    9.1593 F       1  UNL1       -0.1659
     39 F          59.2750   88.0325    6.8818 F       1  UNL1       -0.1659
@<TRIPOS>BOND
     1     9    10    1
     2    10    11   ar
     3    11    12   ar
     4    12    16    1
     5    16    17   am
     6    16    18    2
     7    12    13   ar
     8    13    14   ar
     9    14    15   ar
    10    15     3    1
    11     3     4   ar
    12     4     5   ar
    13     5     6   ar
    14     6     2    1
    15     2     1    1
    16     1    21    1
    17    21    22    1
    18    22    23    1
    19    23    24    1
    20    24    25    1
    21    26    25    1
    22    26    27    1
    23    27    28    1
    24    28    30    1
    25    30    31   ar
    26    31    32   ar
    27    32    33   ar
    28    33    36    1
    29    36    37    1
    30    36    38    1
    31    36    39    1
    32    33    34   ar
    33    34    35   ar
    34    26    29    1
    35     6     7   ar
    36     7     8    1
    37    15    10   ar
    38     7     3   ar
    39    29    23    1
    40    28    26    1
    41    35    30   ar
    42    17    19    1
    43    17    20    1
@<TRIPOS>MOLECULE
*****
 39 43 0 0 0
SMALL
GASTEIGER

@<TRIPOS>ATOM
      1 C          60.3804   87.1092    8.6706 C.3     1  UNL1        0.0666
      2 S          60.1345   87.5134   10.0940 S.3     1  UNL1       -0.0756
      3 C          62.2833   90.2448   11.8226 C.ar    1  UNL1        0.1680
      4 N          61.2358   91.0822   11.1507 N.ar    1  UNL1       -0.1282
      5 N          60.3033   90.1609   10.4214 N.ar    1  UNL1       -0.1221
      6 C          60.7746   88.7542   10.6426 C.ar    1  UNL1        0.1932
      7 N          61.9982   88.8059   11.5085 N.ar    1  UNL1       -0.2884
      8 C          62.7967   87.6260   11.9781 C.3     1  UNL1        0.1340
      9 C          64.3980   91.9788   10.5894 C.3     1  UNL1        0.0522
     10 C          64.4742   91.6234   12.0447 C.ar    1  UNL1        0.0624
     11 N          65.6078   92.1350   12.8833 N.ar    1  UNL1       -0.2450
     12 C          65.6840   91.7795   14.3386 C.ar    1  UNL1        0.1338
     13 C          64.6266   90.9124   14.9553 C.ar    1  UNL1        0.0238
     14 C          63.4931   90.4008   14.1166 C.ar    1  UNL1        0.0059
     15 C          63.4169   90.7563   12.6613 C.ar    1  UNL1        0.0495
     16 C          66.8175   92.2910   15.1773 C.2     1  UNL1        0.2605
     17 N          66.5341   93.0976   16.4098 N.am    1  UNL1       -0.3241
     18 O          68.2345   91.9960   14.7835 O.2     1  UNL1       -0.2687
     19 H          65.6040   93.2913   16.6682 H       1  UNL1        0.1453
     20 H          67.2780   93.4334   16.9602 H       1  UNL1        0.1453
     21 C          61.2342   85.9138    8.3672 C.3     1  UNL1        0.0294
     22 C          62.6661   85.8821    8.8131 C.3     1  UNL1        0.0730
     23 N          63.1816   84.7121    9.5976 N.3     1  UNL1       -0.2726
     24 C          63.6283   83.3977    9.0294 C.3     1  UNL1        0.0721
     25 C          64.0637   82.5244   10.1686 C.3     1  UNL1        0.0190
     26 C          63.8860   83.2990   11.4408 C.3     1  UNL1        0.0201
     27 C          64.3802   82.2164   12.3539 C.3     1  UNL1        0.0061
     28 C          63.9335   83.5308   12.9220 C.3     1  UNL1        0.0237
     29 C          63.3409   84.6511   11.0878 C.3     1  UNL1        0.0724
     30 C          63.7029   84.4235   14.1052 C.ar    1  UNL1       -0.0225
     31 C          62.6035   84.1119   15.0769 C.ar    1  UNL1       -0.0043
     32 C          62.3730   85.0046   16.2601 C.ar    1  UNL1        0.0035
     33 C          63.2418   86.2090   16.4715 C.ar    1  UNL1        0.0714
     34 C          64.3412   86.5206   15.4998 C.ar    1  UNL1        0.0035
     35 C          64.5718   85.6279   14.3166 C.ar    1  UNL1       -0.0043
     36 C          63.0113   87.1017   17.6547 C.3     1  UNL1        0.4186
     37 F          62.7807   87.9944   18.8379 F       1  UNL1       -0.1659
     38 F          63.5098   88.2760   16.8658 F       1  UNL1       -0.1659
     39 F          62.5128   85.9273   18.4436 F       1  UNL1       -0.1659
@<TRIPOS>BOND
     1     9    10    1
     2    10    11   ar
     3    11    12   ar
     4    12    16    1
     5    16    17   am
     6    16    18    2
     7    12    13   ar
     8    13    14   ar
     9    14    15   ar
    10    15     3    1
    11     3     4   ar
    12     4     5   ar
    13     5     6   ar
    14     6     2    1
    15     2     1    1
    16     1    21    1
    17    21    22    1
    18    22    23    1
    19    23    24    1
    20    24    25    1
    21    26    25    1
    22    26    27    1
    23    27    28    1
    24    28    30    1
    25    30    31   ar
    26    31    32   ar
    27    32    33   ar
    28    33    36    1
    29    36    37    1
    30    36    38    1
    31    36    39    1
    32    33    34   ar
    33    34    35   ar
    34    26    29    1
    35     6     7   ar
    36     7     8    1
    37    15    10   ar
    38     7     3   ar
    39    29    23    1
    40    28    26    1
    41    35    30   ar
    42    17    19    1
    43    17    20    1
@<TRIPOS>MOLECULE
*****
 39 43 0 0 0
SMALL
GASTEIGER

@<TRIPOS>ATOM
      1 C          60.1742   88.4021    9.1261 C.3     1  UNL1        0.0666
      2 S          60.3312   89.7579    9.7483 S.3     1  UNL1       -0.0756
      3 C          62.9491   90.5435   12.5041 C.ar    1  UNL1        0.1680
      4 N          61.9082   89.8073   13.2945 N.ar    1  UNL1       -0.1282
      5 N          60.8009   89.4234   12.3583 N.ar    1  UNL1       -0.1221
      6 C          61.1573   89.9223   10.9894 C.ar    1  UNL1        0.1932
      7 N          62.4850   90.6146   11.0794 N.ar    1  UNL1       -0.2884
      8 C          63.2196   91.2639    9.9442 C.3     1  UNL1        0.1340
      9 C          63.6876   90.1076   15.3789 C.3     1  UNL1        0.0522
     10 C          64.5985   90.8913   14.4811 C.ar    1  UNL1        0.0624
     11 N          65.8787   91.4570   15.0207 N.ar    1  UNL1       -0.2450
     12 C          66.7895   92.2407   14.1229 C.ar    1  UNL1        0.1338
     13 C          66.4204   92.4587   12.6854 C.ar    1  UNL1        0.0238
     14 C          65.1402   91.8929   12.1459 C.ar    1  UNL1        0.0059
     15 C          64.2293   91.1093   13.0437 C.ar    1  UNL1        0.0495
     16 C          68.0697   92.8065   14.6625 C.2     1  UNL1        0.2605
     17 N          69.3866   92.3090   14.1446 N.am    1  UNL1       -0.3241
     18 O          68.0329   93.8697   15.7199 O.2     1  UNL1       -0.2687
     19 H          69.4108   91.6112   13.4505 H       1  UNL1        0.1453
     20 H          70.2268   92.6803   14.4987 H       1  UNL1        0.1453
     21 C          60.8849   87.2197    9.7152 C.3     1  UNL1        0.0294
     22 C          61.9741   86.5375    8.9418 C.3     1  UNL1        0.0730
     23 N          62.6961   85.3655    9.5378 N.3     1  UNL1       -0.2726
     24 C          63.2581   84.1986    8.7813 C.3     1  UNL1        0.0721
     25 C          63.8921   83.2666    9.7710 C.3     1  UNL1        0.0190
     26 C          63.7220   83.8576   11.1391 C.3     1  UNL1        0.0201
     27 C          64.4222   82.7538   11.8749 C.3     1  UNL1        0.0061
     28 C          63.8602   83.9208   12.6314 C.3     1  UNL1        0.0237
     29 C          62.9828   85.1548   10.9950 C.3     1  UNL1        0.0724
     30 C          63.6155   84.6310   13.9298 C.ar    1  UNL1       -0.0225
     31 C          62.5157   84.1715   14.8404 C.ar    1  UNL1       -0.0043
     32 C          62.2710   84.8818   16.1387 C.ar    1  UNL1        0.0035
     33 C          63.1261   86.0515   16.5264 C.ar    1  UNL1        0.0714
     34 C          64.2260   86.5111   15.6157 C.ar    1  UNL1        0.0035
     35 C          64.4706   85.8008   14.3174 C.ar    1  UNL1       -0.0043
     36 C          62.8814   86.7618   17.8247 C.3     1  UNL1        0.4186
     37 F          62.6368   87.4721   19.1231 F       1  UNL1       -0.1659
     38 F          62.2976   85.5063   18.4015 F       1  UNL1       -0.1659
     39 F          63.4653   88.0173   17.2479 F       1  UNL1       -0.1659
@<TRIPOS>BOND
     1     9    10    1
     2    10    11   ar
     3    11    12   ar
     4    12    16    1
     5    16    17   am
     6    16    18    2
     7    12    13   ar
     8    13    14   ar
     9    14    15   ar
    10    15     3    1
    11     3     4   ar
    12     4     5   ar
    13     5     6   ar
    14     6     2    1
    15     2     1    1
    16     1    21    1
    17    21    22    1
    18    22    23    1
    19    23    24    1
    20    24    25    1
    21    26    25    1
    22    26    27    1
    23    27    28    1
    24    28    30    1
    25    30    31   ar
    26    31    32   ar
    27    32    33   ar
    28    33    36    1
    29    36    37    1
    30    36    38    1
    31    36    39    1
    32    33    34   ar
    33    34    35   ar
    34    26    29    1
    35     6     7   ar
    36     7     8    1
    37    15    10   ar
    38     7     3   ar
    39    29    23    1
    40    28    26    1
    41    35    30   ar
    42    17    19    1
    43    17    20    1
@<TRIPOS>MOLECULE
*****
 39 43 0 0 0
SMALL
GASTEIGER

@<TRIPOS>ATOM
      1 C          60.9808   88.5569    9.7821 C.3     1  UNL1        0.0666
      2 S          61.0414   89.6266   10.8319 S.3     1  UNL1       -0.0756
      3 C          64.2617   91.4796   11.9553 C.ar    1  UNL1        0.1680
      4 N          64.1401   91.9449   10.5344 N.ar    1  UNL1       -0.1282
      5 N          62.9191   91.3074    9.9407 N.ar    1  UNL1       -0.1221
      6 C          62.2859   90.4481   10.9946 C.ar    1  UNL1        0.1932
      7 N          63.1156   90.5545   12.2397 N.ar    1  UNL1       -0.2884
      8 C          62.8466   89.8581   13.5407 C.3     1  UNL1        0.1340
      9 C          66.8233   92.6693   10.9442 C.3     1  UNL1        0.0522
     10 C          66.6207   92.4656   12.4164 C.ar    1  UNL1        0.0624
     11 N          67.6989   92.8568   13.3831 N.ar    1  UNL1       -0.2450
     12 C          67.4963   92.6530   14.8553 C.ar    1  UNL1        0.1338
     13 C          66.2154   92.0581   15.3609 C.ar    1  UNL1        0.0238
     14 C          65.1372   91.6670   14.3942 C.ar    1  UNL1        0.0059
     15 C          65.3399   91.8707   12.9220 C.ar    1  UNL1        0.0495
     16 C          68.5745   93.0441   15.8220 C.2     1  UNL1        0.2605
     17 N          69.0142   94.4751   15.9164 N.am    1  UNL1       -0.3241
     18 O          69.2130   92.0043   16.6943 O.2     1  UNL1       -0.2687
     19 H          68.5951   95.1576   15.3439 H       1  UNL1        0.1453
     20 H          69.7218   94.7318   16.5509 H       1  UNL1        0.1453
     21 C          62.1940   87.7251    9.4880 C.3     1  UNL1        0.0294
     22 C          62.0371   86.3340    8.9495 C.3     1  UNL1        0.0730
     23 N          62.7520   85.1904    9.6062 N.3     1  UNL1       -0.2726
     24 C          63.3055   83.9814    8.9121 C.3     1  UNL1        0.0721
     25 C          63.9345   83.0989    9.9492 C.3     1  UNL1        0.0190
     26 C          63.7697   83.7626   11.2843 C.3     1  UNL1        0.0201
     27 C          64.4634   82.6948   12.0769 C.3     1  UNL1        0.0061
     28 C          63.9099   83.9038   12.7710 C.3     1  UNL1        0.0237
     29 C          63.0389   85.0553   11.0723 C.3     1  UNL1        0.0724
     30 C          63.6713   84.6834   14.0301 C.ar    1  UNL1       -0.0225
     31 C          64.3706   85.9928   14.2454 C.ar    1  UNL1       -0.0043
     32 C          64.1320   86.7724   15.5045 C.ar    1  UNL1        0.0035
     33 C          63.1941   86.2425   16.5483 C.ar    1  UNL1        0.0714
     34 C          62.4948   84.9331   16.3330 C.ar    1  UNL1        0.0035
     35 C          62.7334   84.1535   15.0739 C.ar    1  UNL1       -0.0043
     36 C          62.9555   87.0221   17.8073 C.3     1  UNL1        0.4186
     37 F          62.7169   87.8018   19.0665 F       1  UNL1       -0.1659
     38 F          62.4536   85.7797   18.4815 F       1  UNL1       -0.1659
     39 F          63.4574   88.2645   17.1332 F       1  UNL1       -0.1659
@<TRIPOS>BOND
     1     9    10    1
     2    10    11   ar
     3    11    12   ar
     4    12    16    1
     5    16    17   am
     6    16    18    2
     7    12    13   ar
     8    13    14   ar
     9    14    15   ar
    10    15     3    1
    11     3     4   ar
    12     4     5   ar
    13     5     6   ar
    14     6     2    1
    15     2     1    1
    16     1    21    1
    17    21    22    1
    18    22    23    1
    19    23    24    1
    20    24    25    1
    21    26    25    1
    22    26    27    1
    23    27    28    1
    24    28    30    1
    25    30    31   ar
    26    31    32   ar
    27    32    33   ar
    28    33    36    1
    29    36    37    1
    30    36    38    1
    31    36    39    1
    32    33    34   ar
    33    34    35   ar
    34    26    29    1
    35     6     7   ar
    36     7     8    1
    37    15    10   ar
    38     7     3   ar
    39    29    23    1
    40    28    26    1
    41    35    30   ar
    42    17    19    1
    43    17    20    1
@<TRIPOS>MOLECULE
*****
 39 43 0 0 0
SMALL
GASTEIGER

@<TRIPOS>ATOM
      1 C          64.7627   82.2002   14.1541 C.3     1  UNL1        0.0666
      2 S          64.0393   81.7624   12.9152 S.3     1  UNL1       -0.0756
      3 C          63.0319   84.6009   10.4670 C.ar    1  UNL1        0.1680
      4 N          64.0051   83.8266    9.6284 N.ar    1  UNL1       -0.1282
      5 N          64.5010   82.6690   10.4434 N.ar    1  UNL1       -0.1221
      6 C          63.8342   82.7279   11.7858 C.ar    1  UNL1        0.1932
      7 N          62.9262   83.9218   11.8004 N.ar    1  UNL1       -0.2884
      8 C          62.0640   84.3598   12.9470 C.3     1  UNL1        0.1340
      9 C          62.0797   84.8890    7.6368 C.3     1  UNL1        0.0522
     10 C          61.8178   85.9811    8.6311 C.ar    1  UNL1        0.0624
     11 N          61.0798   87.2174    8.2102 N.ar    1  UNL1       -0.2450
     12 C          60.8179   88.3095    9.2044 C.ar    1  UNL1        0.1338
     13 C          61.2940   88.1655   10.6196 C.ar    1  UNL1        0.0238
     14 C          62.0320   86.9293   11.0405 C.ar    1  UNL1        0.0059
     15 C          62.2939   85.8371   10.0462 C.ar    1  UNL1        0.0495
     16 C          60.0799   89.5458    8.7836 C.2     1  UNL1        0.2605
     17 N          59.7177   89.7489    7.3423 N.am    1  UNL1       -0.3241
     18 O          59.7041   90.5788    9.8041 O.2     1  UNL1       -0.2687
     19 H          59.9643   89.0709    6.6724 H       1  UNL1        0.1453
     20 H          59.2333   90.5603    7.0661 H       1  UNL1        0.1453
     21 C          64.2231   83.3323   14.9771 C.3     1  UNL1        0.0294
     22 C          64.7456   84.7235   14.7733 C.3     1  UNL1        0.0730
     23 N          64.1484   85.8683   15.5367 N.3     1  UNL1       -0.2726
     24 C          63.4351   85.7737   16.8529 C.3     1  UNL1        0.0721
     25 C          63.0056   87.1557   17.2475 C.3     1  UNL1        0.0190
     26 C          63.4534   88.1043   16.1753 C.3     1  UNL1        0.0201
     27 C          62.9063   89.3419   16.8225 C.3     1  UNL1        0.0061
     28 C          63.6196   89.4365   15.5063 C.3     1  UNL1        0.0237
     29 C          64.1597   87.3086   15.1179 C.3     1  UNL1        0.0724
     30 C          64.1274   90.2602   14.3602 C.ar    1  UNL1       -0.0225
     31 C          63.3802   90.2768   13.0596 C.ar    1  UNL1       -0.0043
     32 C          63.8880   91.1005   11.9134 C.ar    1  UNL1        0.0035
     33 C          65.1429   91.9076   12.0679 C.ar    1  UNL1        0.0714
     34 C          65.8900   91.8910   13.3685 C.ar    1  UNL1        0.0035
     35 C          65.3823   91.0673   14.5146 C.ar    1  UNL1       -0.0043
     36 C          65.6507   92.7313   10.9218 C.3     1  UNL1        0.4186
     37 F          66.1585   93.5551    9.7756 F       1  UNL1       -0.1659
     38 F          64.4141   92.4038   10.1385 F       1  UNL1       -0.1659
     39 F          66.8873   93.0589   11.7050 F       1  UNL1       -0.1659
@<TRIPOS>BOND
     1     9    10    1
     2    10    11   ar
     3    11    12   ar
     4    12    16    1
     5    16    17   am
     6    16    18    2
     7    12    13   ar
     8    13    14   ar
     9    14    15   ar
    10    15     3    1
    11     3     4   ar
    12     4     5   ar
    13     5     6   ar
    14     6     2    1
    15     2     1    1
    16     1    21    1
    17    21    22    1
    18    22    23    1
    19    23    24    1
    20    24    25    1
    21    26    25    1
    22    26    27    1
    23    27    28    1
    24    28    30    1
    25    30    31   ar
    26    31    32   ar
    27    32    33   ar
    28    33    36    1
    29    36    37    1
    30    36    38    1
    31    36    39    1
    32    33    34   ar
    33    34    35   ar
    34    26    29    1
    35     6     7   ar
    36     7     8    1
    37    15    10   ar
    38     7     3   ar
    39    29    23    1
    40    28    26    1
    41    35    30   ar
    42    17    19    1
    43    17    20    1
@<TRIPOS>MOLECULE
*****
 39 43 0 0 0
SMALL
GASTEIGER

@<TRIPOS>ATOM
      1 C          59.0975   90.4234    5.7399 C.3     1  UNL1        0.0666
      2 S          60.4209   90.8684    5.1918 S.3     1  UNL1       -0.0756
      3 C          61.2449   93.2340    2.2268 C.ar    1  UNL1        0.1680
      4 N          59.8609   93.6886    2.5845 N.ar    1  UNL1       -0.1282
      5 N          59.3838   92.8578    3.7386 N.ar    1  UNL1       -0.1221
      6 C          60.4729   91.8897    4.0944 C.ar    1  UNL1        0.1932
      7 N          61.6232   92.1221    3.1601 N.ar    1  UNL1       -0.2884
      8 C          62.9233   91.3741    3.1591 C.3     1  UNL1        0.1340
      9 C          60.7435   92.4333   -0.6205 C.3     1  UNL1        0.0522
     10 C          61.8497   93.3926   -0.2948 C.ar    1  UNL1        0.0624
     11 N          62.7052   93.9516   -1.3929 N.ar    1  UNL1       -0.2450
     12 C          63.8114   94.9109   -1.0672 C.ar    1  UNL1        0.1338
     13 C          64.0622   95.3113    0.3565 C.ar    1  UNL1        0.0238
     14 C          63.2066   94.7523    1.4545 C.ar    1  UNL1        0.0059
     15 C          62.1005   93.7930    1.1288 C.ar    1  UNL1        0.0495
     16 C          64.6669   95.4699   -2.1652 C.2     1  UNL1        0.2605
     17 N          64.6296   94.8540   -3.5325 N.am    1  UNL1       -0.3241
     18 O          65.5598   96.6448   -1.8960 O.2     1  UNL1       -0.2687
     19 H          64.0436   94.0829   -3.7092 H       1  UNL1        0.1453
     20 H          65.1911   95.2209   -4.2531 H       1  UNL1        0.1453
     21 C          59.0362   89.3005    6.7326 C.3     1  UNL1        0.0294
     22 C          59.6997   89.4446    8.0701 C.3     1  UNL1        0.0730
     23 N          60.3223   88.2507    8.7311 N.3     1  UNL1       -0.2726
     24 C          60.1261   86.8187    8.3299 C.3     1  UNL1        0.0721
     25 C          60.9330   85.9621    9.2601 C.3     1  UNL1        0.0190
     26 C          61.6278   86.8647   10.2362 C.3     1  UNL1        0.0201
     27 C          62.3196   85.7716   10.9955 C.3     1  UNL1        0.0061
     28 C          62.5158   87.2036   11.3966 C.3     1  UNL1        0.0237
     29 C          61.2504   88.2791    9.9092 C.3     1  UNL1        0.0724
     30 C          63.1417   88.2261   12.2982 C.ar    1  UNL1       -0.0225
     31 C          63.1368   89.6742   11.9071 C.ar    1  UNL1       -0.0043
     32 C          63.7627   90.6967   12.8086 C.ar    1  UNL1        0.0035
     33 C          64.3935   90.2710   14.1013 C.ar    1  UNL1        0.0714
     34 C          64.3983   88.8229   14.4924 C.ar    1  UNL1        0.0035
     35 C          63.7724   87.8004   13.5908 C.ar    1  UNL1       -0.0043
     36 C          65.0194   91.2934   15.0028 C.3     1  UNL1        0.4186
     37 F          65.6453   92.3159   15.9044 F       1  UNL1       -0.1659
     38 F          66.0426   91.5965   13.9487 F       1  UNL1       -0.1659
     39 F          63.9961   90.9904   16.0569 F       1  UNL1       -0.1659
@<TRIPOS>BOND
     1     9    10    1
     2    10    11   ar
     3    11    12   ar
     4    12    16    1
     5    16    17   am
     6    16    18    2
     7    12    13   ar
     8    13    14   ar
     9    14    15   ar
    10    15     3    1
    11     3     4   ar
    12     4     5   ar
    13     5     6   ar
    14     6     2    1
    15     2     1    1
    16     1    21    1
    17    21    22    1
    18    22    23    1
    19    23    24    1
    20    24    25    1
    21    26    25    1
    22    26    27    1
    23    27    28    1
    24    28    30    1
    25    30    31   ar
    26    31    32   ar
    27    32    33   ar
    28    33    36    1
    29    36    37    1
    30    36    38    1
    31    36    39    1
    32    33    34   ar
    33    34    35   ar
    34    26    29    1
    35     6     7   ar
    36     7     8    1
    37    15    10   ar
    38     7     3   ar
    39    29    23    1
    40    28    26    1
    41    35    30   ar
    42    17    19    1
    43    17    20    1
