@<TRIPOS>MOLECULE
*****
 25 28 0 0 0
SMALL
GASTEIGER

@<TRIPOS>ATOM
      1 C          65.1007   92.3822   12.5284 C.3     1  UNL1        0.2082
      2 S          64.4431   91.9566   11.2492 S.3     1  UNL1       -0.0753
      3 C          63.3481   90.9317   11.2737 C.ar    1  UNL1        0.0443
      4 C          62.6904   90.5061    9.9945 C.ar    1  UNL1        0.0077
      5 C          61.5954   89.4812   10.0190 C.ar    1  UNL1        0.0006
      6 C          61.1581   88.8820   11.3227 C.ar    1  UNL1        0.0015
      7 C          61.8157   89.3075   12.6019 C.ar    1  UNL1        0.0182
      8 C          62.9107   90.3324   12.5774 C.ar    1  UNL1        0.0768
      9 N          63.5684   90.7580   13.8566 N.ar    1  UNL1       -0.2242
     10 C          64.6634   91.7829   13.8321 C.ar    1  UNL1        0.2069
     11 N          65.1228   92.0042   15.2427 N.ar    1  UNL1       -0.0545
     12 O          64.3117   91.1162   16.1391 O.2     1  UNL1       -0.2950
     13 C          63.3510   90.3459   15.2824 C.ar    1  UNL1        0.4472
     14 O          62.3489   89.3402   15.7665 O.2     1  UNL1       -0.2203
     15 C          65.8578   93.2317   11.5511 C.ar    1  UNL1        0.0191
     16 C          66.6744   92.5859   10.4711 C.ar    1  UNL1        0.0024
     17 C          67.4315   93.4355    9.4938 C.ar    1  UNL1        0.0367
     18 C          67.3719   94.9308    9.5964 C.ar    1  UNL1        0.1387
     19 C          66.5553   95.5765   10.6763 C.ar    1  UNL1        0.0367
     20 C          65.7983   94.7270   11.6536 C.ar    1  UNL1        0.0024
     21 O          68.1289   95.7804    8.6191 O.3     1  UNL1       -0.4714
     22 C          67.4180   96.8557    7.8522 C.3     1  UNL1        0.2525
     23 O          66.0213   93.1028   13.4682 O.3     1  UNL1       -0.3379
     24 C          68.1624   93.0673   14.9394 C.3     1  UNL1        0.0347
     25 C          67.3691   92.5268   13.7868 C.3     1  UNL1        0.1440
@<TRIPOS>BOND
     1    24    25    1
     2    25    23    1
     3    23     1    1
     4     1    15    1
     5    15    16   ar
     6    16    17   ar
     7    17    18   ar
     8    18    21    1
     9    21    22    1
    10    18    19   ar
    11    19    20   ar
    12     1     2    1
    13     2     3    1
    14     3     4   ar
    15     4     5   ar
    16     5     6   ar
    17     6     7   ar
    18     7     8   ar
    19     8     9    1
    20     9    10   ar
    21    10    11   ar
    22    11    12   ar
    23    12    13   ar
    24    13    14    2
    25    10     1    1
    26    20    15   ar
    27     8     3   ar
    28    13     9   ar
@<TRIPOS>MOLECULE
*****
 25 28 0 0 0
SMALL
GASTEIGER

@<TRIPOS>ATOM
      1 C          62.7283   85.9761   12.2475 C.3     1  UNL1        0.2082
      2 S          61.8698   85.6284   11.0677 S.3     1  UNL1       -0.0753
      3 C          61.3304   86.7157   10.1862 C.ar    1  UNL1        0.0443
      4 C          60.4719   86.3680    9.0064 C.ar    1  UNL1        0.0077
      5 C          59.9326   87.4552    8.1250 C.ar    1  UNL1        0.0006
      6 C          60.2517   88.8902    8.4234 C.ar    1  UNL1        0.0015
      7 C          61.1102   89.2379    9.6032 C.ar    1  UNL1        0.0182
      8 C          61.6496   88.1506   10.4846 C.ar    1  UNL1        0.0768
      9 N          62.5081   88.4983   11.6645 N.ar    1  UNL1       -0.2242
     10 C          63.0475   87.4110   12.5459 C.ar    1  UNL1        0.2069
     11 N          63.8608   88.0539   13.6300 N.ar    1  UNL1       -0.0545
     12 O          63.8240   89.5384   13.4186 O.2     1  UNL1       -0.2950
     13 C          62.9880   89.8131   12.2038 C.ar    1  UNL1        0.4472
     14 O          62.6852   91.1652   11.6293 O.2     1  UNL1       -0.2203
     15 C          62.7044   84.4816   12.3741 C.ar    1  UNL1        0.0191
     16 C          63.1594   83.6247   11.2300 C.ar    1  UNL1        0.0024
     17 C          63.1355   82.1302   11.3567 C.ar    1  UNL1        0.0367
     18 C          62.6567   81.4927   12.6272 C.ar    1  UNL1        0.1387
     19 C          62.2018   82.3496   13.7712 C.ar    1  UNL1        0.0367
     20 C          62.2257   83.8441   13.6446 C.ar    1  UNL1        0.0024
     21 O          62.6328   79.9982   12.7538 O.3     1  UNL1       -0.4714
     22 C          61.8536   79.3517   13.8605 C.3     1  UNL1        0.2525
     23 O          63.5785   85.8047   13.4713 O.3     1  UNL1       -0.3379
     24 C          65.7438   84.8893   14.5775 C.3     1  UNL1        0.0347
     25 C          64.7734   84.8988   13.4337 C.3     1  UNL1        0.1440
@<TRIPOS>BOND
     1    24    25    1
     2    25    23    1
     3    23     1    1
     4     1    15    1
     5    15    16   ar
     6    16    17   ar
     7    17    18   ar
     8    18    21    1
     9    21    22    1
    10    18    19   ar
    11    19    20   ar
    12     1     2    1
    13     2     3    1
    14     3     4   ar
    15     4     5   ar
    16     5     6   ar
    17     6     7   ar
    18     7     8   ar
    19     8     9    1
    20     9    10   ar
    21    10    11   ar
    22    11    12   ar
    23    12    13   ar
    24    13    14    2
    25    10     1    1
    26    20    15   ar
    27     8     3   ar
    28    13     9   ar
@<TRIPOS>MOLECULE
*****
 25 28 0 0 0
SMALL
GASTEIGER

@<TRIPOS>ATOM
      1 C          62.6175   90.1015   12.1736 C.3     1  UNL1        0.2082
      2 S          63.3547   90.7910   11.0640 S.3     1  UNL1       -0.0753
      3 C          64.4733   91.7385   11.3821 C.ar    1  UNL1        0.0443
      4 C          65.2105   92.4280   10.2725 C.ar    1  UNL1        0.0077
      5 C          66.3290   93.3754   10.5906 C.ar    1  UNL1        0.0006
      6 C          66.7104   93.6333   12.0182 C.ar    1  UNL1        0.0015
      7 C          65.9733   92.9438   13.1277 C.ar    1  UNL1        0.0182
      8 C          64.8547   91.9964   12.8097 C.ar    1  UNL1        0.0768
      9 N          64.1175   91.3068   13.9192 N.ar    1  UNL1       -0.2242
     10 C          62.9989   90.3594   13.6012 C.ar    1  UNL1        0.2069
     11 N          62.4579   89.8296   14.8960 N.ar    1  UNL1       -0.0545
     12 O          63.2421   90.4496   16.0143 O.2     1  UNL1       -0.2950
     13 C          64.2678   91.3626   15.4106 C.ar    1  UNL1        0.4472
     14 O          65.2682   92.1866   16.1657 O.2     1  UNL1       -0.2203
     15 C          61.8927   89.5359   10.9884 C.ar    1  UNL1        0.0191
     16 C          62.0997   88.1028   10.5964 C.ar    1  UNL1        0.0024
     17 C          61.3749   87.5373    9.4112 C.ar    1  UNL1        0.0367
     18 C          60.4431   88.4047    8.6179 C.ar    1  UNL1        0.1387
     19 C          60.2361   89.8377    9.0099 C.ar    1  UNL1        0.0367
     20 C          60.9609   90.4033   10.1951 C.ar    1  UNL1        0.0024
     21 O          59.7182   87.8392    7.4327 O.3     1  UNL1       -0.4714
     22 C          59.0071   86.5234    7.5464 C.3     1  UNL1        0.2525
     23 O          61.6286   89.2155   12.8715 O.3     1  UNL1       -0.3379
     24 C          59.0876   88.7221   12.6480 C.3     1  UNL1        0.0347
     25 C          60.2021   89.6547   13.0198 C.3     1  UNL1        0.1440
@<TRIPOS>BOND
     1    24    25    1
     2    25    23    1
     3    23     1    1
     4     1    15    1
     5    15    16   ar
     6    16    17   ar
     7    17    18   ar
     8    18    21    1
     9    21    22    1
    10    18    19   ar
    11    19    20   ar
    12     1     2    1
    13     2     3    1
    14     3     4   ar
    15     4     5   ar
    16     5     6   ar
    17     6     7   ar
    18     7     8   ar
    19     8     9    1
    20     9    10   ar
    21    10    11   ar
    22    11    12   ar
    23    12    13   ar
    24    13    14    2
    25    10     1    1
    26    20    15   ar
    27     8     3   ar
    28    13     9   ar
@<TRIPOS>MOLECULE
*****
 25 28 0 0 0
SMALL
GASTEIGER

@<TRIPOS>ATOM
      1 C          62.3803   86.7913   11.6948 C.3     1  UNL1        0.2082
      2 S          62.1415   85.4316   11.1083 S.3     1  UNL1       -0.0753
      3 C          62.7510   84.2204   11.7499 C.ar    1  UNL1        0.0443
      4 C          62.5121   82.8607   11.1634 C.ar    1  UNL1        0.0077
      5 C          63.1216   81.6496   11.8050 C.ar    1  UNL1        0.0006
      6 C          63.9699   81.7982   13.0331 C.ar    1  UNL1        0.0015
      7 C          64.2088   83.1579   13.6196 C.ar    1  UNL1        0.0182
      8 C          63.5993   84.3690   12.9780 C.ar    1  UNL1        0.0768
      9 N          63.8382   85.7289   13.5645 N.ar    1  UNL1       -0.2242
     10 C          63.2287   86.9400   12.9229 C.ar    1  UNL1        0.2069
     11 N          63.6373   88.1425   13.7210 N.ar    1  UNL1       -0.0545
     12 O          64.4994   87.6745   14.8558 O.2     1  UNL1       -0.2950
     13 C          64.6235   86.1828   14.7591 C.ar    1  UNL1        0.4472
     14 O          65.3971   85.3000   15.6930 O.2     1  UNL1       -0.2203
     15 C          61.5100   87.1593   10.5299 C.ar    1  UNL1        0.0191
     16 C          61.8088   86.6086    9.1669 C.ar    1  UNL1        0.0024
     17 C          60.9384   86.9767    8.0020 C.ar    1  UNL1        0.0367
     18 C          59.7693   87.8953    8.2000 C.ar    1  UNL1        0.1387
     19 C          59.4705   88.4459    9.5629 C.ar    1  UNL1        0.0367
     20 C          60.3408   88.0779   10.7278 C.ar    1  UNL1        0.0024
     21 O          58.8988   88.2633    7.0351 O.3     1  UNL1       -0.4714
     22 C          59.1140   89.5640    6.3196 C.3     1  UNL1        0.2525
     23 O          62.3169   88.2789   11.8767 O.3     1  UNL1       -0.3379
     24 C          62.7515   90.5878   10.7676 C.3     1  UNL1        0.0347
     25 C          63.1773   89.1748   11.0358 C.3     1  UNL1        0.1440
@<TRIPOS>BOND
     1    24    25    1
     2    25    23    1
     3    23     1    1
     4     1    15    1
     5    15    16   ar
     6    16    17   ar
     7    17    18   ar
     8    18    21    1
     9    21    22    1
    10    18    19   ar
    11    19    20   ar
    12     1     2    1
    13     2     3    1
    14     3     4   ar
    15     4     5   ar
    16     5     6   ar
    17     6     7   ar
    18     7     8   ar
    19     8     9    1
    20     9    10   ar
    21    10    11   ar
    22    11    12   ar
    23    12    13   ar
    24    13    14    2
    25    10     1    1
    26    20    15   ar
    27     8     3   ar
    28    13     9   ar
@<TRIPOS>MOLECULE
*****
 25 28 0 0 0
SMALL
GASTEIGER

@<TRIPOS>ATOM
      1 C          61.9775   86.9928   10.9823 C.3     1  UNL1        0.2082
      2 S          62.1211   88.4665   11.2220 S.3     1  UNL1       -0.0753
      3 C          62.9493   88.9625   12.3702 C.ar    1  UNL1        0.0443
      4 C          63.0928   90.4362   12.6099 C.ar    1  UNL1        0.0077
      5 C          63.9210   90.9322   13.7580 C.ar    1  UNL1        0.0006
      6 C          64.6056   89.9544   14.6663 C.ar    1  UNL1        0.0015
      7 C          64.4621   88.4806   14.4266 C.ar    1  UNL1        0.0182
      8 C          63.6339   87.9847   13.2785 C.ar    1  UNL1        0.0768
      9 N          63.4904   86.5109   13.0388 N.ar    1  UNL1       -0.2242
     10 C          62.6622   86.0150   11.8907 C.ar    1  UNL1        0.2069
     11 N          62.7034   84.5156   11.9031 N.ar    1  UNL1       -0.0545
     12 O          63.5571   84.0849   13.0588 O.2     1  UNL1       -0.2950
     13 C          64.0435   85.3181   13.7607 C.ar    1  UNL1        0.4472
     14 O          64.9277   85.3524   14.9719 O.2     1  UNL1       -0.2203
     15 C          61.1423   87.5227    9.8547 C.ar    1  UNL1        0.0191
     16 C          60.2108   86.6073    9.1168 C.ar    1  UNL1        0.0024
     17 C          59.3755   87.1372    7.9891 C.ar    1  UNL1        0.0367
     18 C          59.4718   88.5825    7.5994 C.ar    1  UNL1        0.1387
     19 C          60.4032   89.4978    8.3373 C.ar    1  UNL1        0.0367
     20 C          61.2384   88.9680    9.4649 C.ar    1  UNL1        0.0024
     21 O          58.6365   89.1124    6.4718 O.3     1  UNL1       -0.4714
     22 C          59.0528   90.3612    5.7527 C.3     1  UNL1        0.2525
     23 O          61.5439   85.7031   10.3510 O.3     1  UNL1       -0.3379
     24 C          63.0590   85.2924    8.2807 C.3     1  UNL1        0.0347
     25 C          62.5403   84.8544    9.6183 C.3     1  UNL1        0.1440
@<TRIPOS>BOND
     1    24    25    1
     2    25    23    1
     3    23     1    1
     4     1    15    1
     5    15    16   ar
     6    16    17   ar
     7    17    18   ar
     8    18    21    1
     9    21    22    1
    10    18    19   ar
    11    19    20   ar
    12     1     2    1
    13     2     3    1
    14     3     4   ar
    15     4     5   ar
    16     5     6   ar
    17     6     7   ar
    18     7     8   ar
    19     8     9    1
    20     9    10   ar
    21    10    11   ar
    22    11    12   ar
    23    12    13   ar
    24    13    14    2
    25    10     1    1
    26    20    15   ar
    27     8     3   ar
    28    13     9   ar
@<TRIPOS>MOLECULE
*****
 25 28 0 0 0
SMALL
GASTEIGER

@<TRIPOS>ATOM
      1 C          63.5892   89.6012   12.8693 C.3     1  UNL1        0.2082
      2 S          64.1722   88.5757   13.7958 S.3     1  UNL1       -0.0753
      3 C          63.8498   87.1232   13.6052 C.ar    1  UNL1        0.0443
      4 C          64.4328   86.0977   14.5318 C.ar    1  UNL1        0.0077
      5 C          64.1104   84.6452   14.3411 C.ar    1  UNL1        0.0006
      6 C          63.2051   84.2182   13.2240 C.ar    1  UNL1        0.0015
      7 C          62.6221   85.2437   12.2974 C.ar    1  UNL1        0.0182
      8 C          62.9445   86.6962   12.4881 C.ar    1  UNL1        0.0768
      9 N          62.3615   87.7218   11.5615 N.ar    1  UNL1       -0.2242
     10 C          62.6839   89.1742   11.7521 C.ar    1  UNL1        0.2069
     11 N          61.9663   89.9517   10.6889 N.ar    1  UNL1       -0.0545
     12 O          61.2005   88.9797    9.8411 O.2     1  UNL1       -0.2950
     13 C          61.4448   87.6015   10.3804 C.ar    1  UNL1        0.4472
     14 O          60.8726   86.3269    9.8345 O.2     1  UNL1       -0.2203
     15 C          64.3885   90.4917   13.7738 C.ar    1  UNL1        0.0191
     16 C          63.8530   90.8634   15.1248 C.ar    1  UNL1        0.0024
     17 C          64.6524   91.7540   16.0293 C.ar    1  UNL1        0.0367
     18 C          65.9870   92.2728   15.5828 C.ar    1  UNL1        0.1387
     19 C          66.5224   91.9011   14.2318 C.ar    1  UNL1        0.0367
     20 C          65.7232   91.0106   13.3274 C.ar    1  UNL1        0.0024
     21 O          66.7863   93.1633   16.4873 O.3     1  UNL1       -0.4714
     22 C          68.1449   93.6375   16.0636 C.3     1  UNL1        0.2525
     23 O          63.2839   90.9360   12.2569 O.3     1  UNL1       -0.3379
     24 C          64.6241   92.5467   10.7208 C.3     1  UNL1        0.0347
     25 C          63.8343   91.2850   10.9059 C.3     1  UNL1        0.1440
@<TRIPOS>BOND
     1    24    25    1
     2    25    23    1
     3    23     1    1
     4     1    15    1
     5    15    16   ar
     6    16    17   ar
     7    17    18   ar
     8    18    21    1
     9    21    22    1
    10    18    19   ar
    11    19    20   ar
    12     1     2    1
    13     2     3    1
    14     3     4   ar
    15     4     5   ar
    16     5     6   ar
    17     6     7   ar
    18     7     8   ar
    19     8     9    1
    20     9    10   ar
    21    10    11   ar
    22    11    12   ar
    23    12    13   ar
    24    13    14    2
    25    10     1    1
    26    20    15   ar
    27     8     3   ar
    28    13     9   ar
@<TRIPOS>MOLECULE
*****
 25 28 0 0 0
SMALL
GASTEIGER

@<TRIPOS>ATOM
      1 C          64.4968   90.3650   13.6224 C.3     1  UNL1        0.2082
      2 S          65.3087   90.6282   14.8559 S.3     1  UNL1       -0.0753
      3 C          66.1823   91.8452   14.9333 C.ar    1  UNL1        0.0443
      4 C          66.9942   92.1083   16.1668 C.ar    1  UNL1        0.0077
      5 C          67.8677   93.3253   16.2442 C.ar    1  UNL1        0.0006
      6 C          67.9293   94.2790   15.0881 C.ar    1  UNL1        0.0015
      7 C          67.1174   94.0158   13.8546 C.ar    1  UNL1        0.0182
      8 C          66.2439   92.7989   13.7772 C.ar    1  UNL1        0.0768
      9 N          65.4320   92.5356   12.5437 N.ar    1  UNL1       -0.2242
     10 C          64.5585   91.3187   12.4663 C.ar    1  UNL1        0.2069
     11 N          63.8766   91.3218   11.1303 N.ar    1  UNL1       -0.0545
     12 O          64.3287   92.5407   10.3820 O.2     1  UNL1       -0.2950
     13 C          65.2900   93.2909   11.2555 C.ar    1  UNL1        0.4472
     14 O          65.9870   94.5714   10.9028 O.2     1  UNL1       -0.2203
     15 C          64.1061   89.1765   14.4499 C.ar    1  UNL1        0.0191
     16 C          63.4832   89.3748   15.8001 C.ar    1  UNL1        0.0024
     17 C          63.0925   88.1863   16.6277 C.ar    1  UNL1        0.0367
     18 C          63.3246   86.7996   16.1051 C.ar    1  UNL1        0.1387
     19 C          63.9475   86.6013   14.7550 C.ar    1  UNL1        0.0367
     20 C          64.3382   87.7898   13.9275 C.ar    1  UNL1        0.0024
     21 O          62.9339   85.6110   16.9326 O.3     1  UNL1       -0.4714
     22 C          62.5508   84.3245   16.2633 C.3     1  UNL1        0.2525
     23 O          63.5493   89.6890   12.6763 O.3     1  UNL1       -0.3379
     24 C          61.1431   89.3747   11.7479 C.3     1  UNL1        0.0347
     25 C          62.0796   89.9796   12.7515 C.3     1  UNL1        0.1440
@<TRIPOS>BOND
     1    24    25    1
     2    25    23    1
     3    23     1    1
     4     1    15    1
     5    15    16   ar
     6    16    17   ar
     7    17    18   ar
     8    18    21    1
     9    21    22    1
    10    18    19   ar
    11    19    20   ar
    12     1     2    1
    13     2     3    1
    14     3     4   ar
    15     4     5   ar
    16     5     6   ar
    17     6     7   ar
    18     7     8   ar
    19     8     9    1
    20     9    10   ar
    21    10    11   ar
    22    11    12   ar
    23    12    13   ar
    24    13    14    2
    25    10     1    1
    26    20    15   ar
    27     8     3   ar
    28    13     9   ar
@<TRIPOS>MOLECULE
*****
 25 28 0 0 0
SMALL
GASTEIGER

@<TRIPOS>ATOM
      1 C          62.5103   86.3419   11.3163 C.3     1  UNL1        0.2082
      2 S          63.2576   86.4490   12.6125 S.3     1  UNL1       -0.0753
      3 C          63.5895   87.7983   13.1775 C.ar    1  UNL1        0.0443
      4 C          64.3368   87.9054   14.4737 C.ar    1  UNL1        0.0077
      5 C          64.6687   89.2547   15.0387 C.ar    1  UNL1        0.0006
      6 C          64.2534   90.4968   14.3075 C.ar    1  UNL1        0.0015
      7 C          63.5062   90.3897   13.0114 C.ar    1  UNL1        0.0182
      8 C          63.1742   89.0404   12.4464 C.ar    1  UNL1        0.0768
      9 N          62.4269   88.9333   11.1501 N.ar    1  UNL1       -0.2242
     10 C          62.0950   87.5840   10.5851 C.ar    1  UNL1        0.2069
     11 N          61.3541   87.7903    9.2973 N.ar    1  UNL1       -0.0545
     12 O          61.2281   89.2670    9.0664 O.2     1  UNL1       -0.2950
     13 C          61.8912   89.9735   10.2116 C.ar    1  UNL1        0.4472
     14 O          61.9995   91.4592   10.3872 O.2     1  UNL1       -0.2203
     15 C          62.6875   84.8871   11.6359 C.ar    1  UNL1        0.0191
     16 C          62.2462   84.3522   12.9661 C.ar    1  UNL1        0.0024
     17 C          62.4233   82.8974   13.2856 C.ar    1  UNL1        0.0367
     18 C          63.0417   81.9774   12.2751 C.ar    1  UNL1        0.1387
     19 C          63.4830   82.5123   10.9450 C.ar    1  UNL1        0.0367
     20 C          63.3059   83.9671   10.6254 C.ar    1  UNL1        0.0024
     21 O          63.2189   80.5226   12.5946 O.3     1  UNL1       -0.4714
     22 C          62.2788   79.8439   13.5463 C.3     1  UNL1        0.2525
     23 O          61.8246   85.7295   10.1311 O.3     1  UNL1       -0.3379
     24 C          61.8007   85.1675    7.5946 C.3     1  UNL1        0.0347
     25 C          62.5296   85.6619    8.8088 C.3     1  UNL1        0.1440
@<TRIPOS>BOND
     1    24    25    1
     2    25    23    1
     3    23     1    1
     4     1    15    1
     5    15    16   ar
     6    16    17   ar
     7    17    18   ar
     8    18    21    1
     9    21    22    1
    10    18    19   ar
    11    19    20   ar
    12     1     2    1
    13     2     3    1
    14     3     4   ar
    15     4     5   ar
    16     5     6   ar
    17     6     7   ar
    18     7     8   ar
    19     8     9    1
    20     9    10   ar
    21    10    11   ar
    22    11    12   ar
    23    12    13   ar
    24    13    14    2
    25    10     1    1
    26    20    15   ar
    27     8     3   ar
    28    13     9   ar
@<TRIPOS>MOLECULE
*****
 25 28 0 0 0
SMALL
GASTEIGER

@<TRIPOS>ATOM
      1 C          62.7462   85.4733   11.8866 C.3     1  UNL1        0.2082
      2 S          62.8781   86.9287   11.5487 S.3     1  UNL1       -0.0753
      3 C          63.3271   87.9042   12.5961 C.ar    1  UNL1        0.0443
      4 C          63.4590   89.3596   12.2582 C.ar    1  UNL1        0.0077
      5 C          63.9079   90.3350   13.3056 C.ar    1  UNL1        0.0006
      6 C          64.2250   89.8548   14.6909 C.ar    1  UNL1        0.0015
      7 C          64.0931   88.3994   15.0288 C.ar    1  UNL1        0.0182
      8 C          63.6441   87.4240   13.9814 C.ar    1  UNL1        0.0768
      9 N          63.5122   85.9685   14.3192 N.ar    1  UNL1       -0.2242
     10 C          63.0632   84.9932   13.2718 C.ar    1  UNL1        0.2069
     11 N          63.0261   83.6289   13.8943 N.ar    1  UNL1       -0.0545
     12 O          63.4522   83.7612   15.3264 O.2     1  UNL1       -0.2950
     13 C          63.7526   85.2072   15.5891 C.ar    1  UNL1        0.4472
     14 O          64.2126   85.7895   16.8926 O.2     1  UNL1       -0.2203
     15 C          62.3336   85.4444   10.4448 C.ar    1  UNL1        0.0191
     16 C          63.2505   84.8555    9.4139 C.ar    1  UNL1        0.0024
     17 C          62.8378   84.8267    7.9720 C.ar    1  UNL1        0.0367
     18 C          61.5084   85.3867    7.5610 C.ar    1  UNL1        0.1387
     19 C          60.5916   85.9756    8.5919 C.ar    1  UNL1        0.0367
     20 C          61.0042   86.0045   10.0337 C.ar    1  UNL1        0.0024
     21 O          61.0957   85.3579    6.1191 O.3     1  UNL1       -0.4714
     22 C          61.7161   84.3651    5.1813 C.3     1  UNL1        0.2525
     23 O          62.4710   84.0078   11.7237 O.3     1  UNL1       -0.3379
     24 C          63.2894   81.6552   10.9849 C.3     1  UNL1        0.0347
     25 C          63.5913   83.0662   11.3948 C.3     1  UNL1        0.1440
@<TRIPOS>BOND
     1    24    25    1
     2    25    23    1
     3    23     1    1
     4     1    15    1
     5    15    16   ar
     6    16    17   ar
     7    17    18   ar
     8    18    21    1
     9    21    22    1
    10    18    19   ar
    11    19    20   ar
    12     1     2    1
    13     2     3    1
    14     3     4   ar
    15     4     5   ar
    16     5     6   ar
    17     6     7   ar
    18     7     8   ar
    19     8     9    1
    20     9    10   ar
    21    10    11   ar
    22    11    12   ar
    23    12    13   ar
    24    13    14    2
    25    10     1    1
    26    20    15   ar
    27     8     3   ar
    28    13     9   ar
