@<TRIPOS>MOLECULE
*****
 25 27 0 0 0
SMALL
GASTEIGER

@<TRIPOS>ATOM
      1 C          63.5450   91.4453   10.0400 C.3     1  UNL1        0.0497
      2 C          64.2681   91.7826   11.3102 C.ar    1  UNL1        0.0355
      3 C          65.4330   92.7186   11.4396 C.ar    1  UNL1       -0.0020
      4 C          65.8381   92.7577   12.8834 C.ar    1  UNL1        0.0317
      5 C          66.9216   93.5058   13.6019 C.ar    1  UNL1        0.0043
      6 C          67.0905   93.3420   15.0833 C.ar    1  UNL1        0.0208
      7 C          66.1759   92.4301   15.8462 C.ar    1  UNL1        0.1005
      8 N          65.0924   91.6820   15.1276 N.ar    1  UNL1       -0.2268
      9 C          64.9235   91.8458   13.6462 C.ar    1  UNL1        0.1435
     10 N          63.9532   91.2432   12.6739 N.ar    1  UNL1       -0.3125
     11 C          66.0794   93.4817   10.3216 C.3     1  UNL1        0.0692
     12 C          67.4900   93.1695    9.9178 C.2     1  UNL1        0.0548
     13 O          67.9535   91.7444    9.8525 O.co2   1  UNL1       -0.5488
     14 O          68.4370   94.2825    9.5794 O.co2   1  UNL1       -0.5488
     15 C          62.8599   90.2717   13.0070 C.3     1  UNL1        0.1338
     16 C          62.1315   89.5566   11.9080 C.ar    1  UNL1        0.0005
     17 C          62.6803   88.2750   11.3544 C.ar    1  UNL1       -0.0011
     18 C          61.9519   87.5598   10.2554 C.ar    1  UNL1        0.0181
     19 C          60.6746   88.1263    9.7098 C.ar    1  UNL1        0.1057
     20 C          60.1258   89.4079   10.2632 C.ar    1  UNL1        0.0181
     21 C          60.8542   90.1231   11.3623 C.ar    1  UNL1       -0.0011
     22 S          59.9461   87.4112    8.6107 S.O2    1  UNL1        0.0104
     23 C          59.2177   86.6960    7.5117 C.3     1  UNL1        0.1816
     24 O          60.4446   86.0973    9.1353 O.2     1  UNL1       -0.1686
     25 O          59.4476   88.7251    8.0861 O.2     1  UNL1       -0.1686
@<TRIPOS>UNITY_ATOM_ATTR
13 1
charge -1
@<TRIPOS>BOND
     1     1     2    1
     2     2     3   ar
     3     3    11    1
     4    11    12    1
     5    12    13   ar
     6    12    14   ar
     7     3     4   ar
     8     4     5   ar
     9     5     6   ar
    10     6     7   ar
    11     7     8   ar
    12     8     9   ar
    13     9    10   ar
    14    10    15    1
    15    15    16    1
    16    16    17   ar
    17    17    18   ar
    18    18    19   ar
    19    19    22    1
    20    22    23    1
    21    22    24    2
    22    22    25    2
    23    19    20   ar
    24    20    21   ar
    25    10     2   ar
    26    21    16   ar
    27     9     4   ar
@<TRIPOS>MOLECULE
*****
 25 27 0 0 0
SMALL
GASTEIGER

@<TRIPOS>ATOM
      1 C          61.2206   89.3848    9.2939 C.3     1  UNL1        0.0497
      2 C          61.7768   88.2486   10.0999 C.ar    1  UNL1        0.0355
      3 C          62.0162   86.8522    9.6072 C.ar    1  UNL1       -0.0020
      4 C          62.5787   86.0499   10.7430 C.ar    1  UNL1        0.0317
      5 C          63.0062   84.6157   10.8437 C.ar    1  UNL1        0.0043
      6 C          63.5421   84.0821   12.1391 C.ar    1  UNL1        0.0208
      7 C          63.6504   84.9826   13.3337 C.ar    1  UNL1        0.1005
      8 N          63.2228   86.4168   13.2330 N.ar    1  UNL1       -0.2268
      9 C          62.6870   86.9505   11.9377 C.ar    1  UNL1        0.1435
     10 N          62.1914   88.3093   11.5402 N.ar    1  UNL1       -0.3125
     11 C          61.7413   86.3468    8.2219 C.3     1  UNL1        0.0692
     12 C          60.3399   86.0001    7.8144 C.2     1  UNL1        0.0548
     13 O          60.0975   84.9030    6.8205 O.co2   1  UNL1       -0.5488
     14 O          59.1809   86.7505    8.4006 O.co2   1  UNL1       -0.5488
     15 C          62.1225   89.5169   12.4274 C.3     1  UNL1        0.1338
     16 C          63.3856   90.1713   12.9028 C.ar    1  UNL1        0.0005
     17 C          64.0494   89.6952   14.1609 C.ar    1  UNL1       -0.0011
     18 C          65.3126   90.3496   14.6364 C.ar    1  UNL1        0.0181
     19 C          65.9120   91.4803   13.8538 C.ar    1  UNL1        0.1057
     20 C          65.2482   91.9564   12.5958 C.ar    1  UNL1        0.0181
     21 C          63.9851   91.3020   12.1203 C.ar    1  UNL1       -0.0011
     22 S          67.1752   92.1347   14.3294 S.O2    1  UNL1        0.0104
     23 C          68.4383   92.7891   14.8049 C.3     1  UNL1        0.1816
     24 O          67.7507   92.0272   12.9483 O.2     1  UNL1       -0.1686
     25 O          66.5997   92.2421   15.7104 O.2     1  UNL1       -0.1686
@<TRIPOS>UNITY_ATOM_ATTR
13 1
charge -1
@<TRIPOS>BOND
     1     1     2    1
     2     2     3   ar
     3     3    11    1
     4    11    12    1
     5    12    13   ar
     6    12    14   ar
     7     3     4   ar
     8     4     5   ar
     9     5     6   ar
    10     6     7   ar
    11     7     8   ar
    12     8     9   ar
    13     9    10   ar
    14    10    15    1
    15    15    16    1
    16    16    17   ar
    17    17    18   ar
    18    18    19   ar
    19    19    22    1
    20    22    23    1
    21    22    24    2
    22    22    25    2
    23    19    20   ar
    24    20    21   ar
    25    10     2   ar
    26    21    16   ar
    27     9     4   ar
@<TRIPOS>MOLECULE
*****
 25 27 0 0 0
SMALL
GASTEIGER

@<TRIPOS>ATOM
      1 C          59.9284   88.8797    8.2483 C.3     1  UNL1        0.0497
      2 C          60.6880   87.9796    9.1772 C.ar    1  UNL1        0.0355
      3 C          60.9803   86.5256    8.9530 C.ar    1  UNL1       -0.0020
      4 C          61.7615   86.0228   10.1306 C.ar    1  UNL1        0.0317
      5 C          62.3240   84.6716   10.4590 C.ar    1  UNL1        0.0043
      6 C          63.0770   84.4638   11.7395 C.ar    1  UNL1        0.0208
      7 C          63.2676   85.6071   12.6916 C.ar    1  UNL1        0.1005
      8 N          62.7051   86.9583   12.3632 N.ar    1  UNL1       -0.2268
      9 C          61.9521   87.1661   11.0827 C.ar    1  UNL1        0.1435
     10 N          61.2886   88.3755   10.4935 N.ar    1  UNL1       -0.3125
     11 C          60.5644   85.7163    7.7604 C.3     1  UNL1        0.0692
     12 C          61.5961   84.9857    6.9530 C.2     1  UNL1        0.0548
     13 O          61.1752   84.1356    5.7910 O.co2   1  UNL1       -0.5488
     14 O          63.0487   85.1051    7.3076 O.co2   1  UNL1       -0.5488
     15 C          61.2351   89.7410   11.1120 C.3     1  UNL1        0.1338
     16 C          62.4762   90.3501   11.6935 C.ar    1  UNL1        0.0005
     17 C          63.3714   91.1932   10.8344 C.ar    1  UNL1       -0.0011
     18 C          64.6127   91.8024   11.4159 C.ar    1  UNL1        0.0181
     19 C          64.9588   91.5685   12.8566 C.ar    1  UNL1        0.1057
     20 C          64.0637   90.7255   13.7157 C.ar    1  UNL1        0.0181
     21 C          62.8225   90.1163   13.1342 C.ar    1  UNL1       -0.0011
     22 S          66.2001   92.1777   13.4381 S.O2    1  UNL1        0.0104
     23 C          67.4413   92.7869   14.0196 C.3     1  UNL1        0.1816
     24 O          66.2530   91.0876   14.4671 O.2     1  UNL1       -0.1686
     25 O          66.1472   93.2678   12.4090 O.2     1  UNL1       -0.1686
@<TRIPOS>UNITY_ATOM_ATTR
13 1
charge -1
@<TRIPOS>BOND
     1     1     2    1
     2     2     3   ar
     3     3    11    1
     4    11    12    1
     5    12    13   ar
     6    12    14   ar
     7     3     4   ar
     8     4     5   ar
     9     5     6   ar
    10     6     7   ar
    11     7     8   ar
    12     8     9   ar
    13     9    10   ar
    14    10    15    1
    15    15    16    1
    16    16    17   ar
    17    17    18   ar
    18    18    19   ar
    19    19    22    1
    20    22    23    1
    21    22    24    2
    22    22    25    2
    23    19    20   ar
    24    20    21   ar
    25    10     2   ar
    26    21    16   ar
    27     9     4   ar
@<TRIPOS>MOLECULE
*****
 25 27 0 0 0
SMALL
GASTEIGER

@<TRIPOS>ATOM
      1 C          64.4240   87.4748   14.8534 C.3     1  UNL1        0.0497
      2 C          63.6708   87.3640   13.5610 C.ar    1  UNL1        0.0355
      3 C          63.4131   86.0996   12.7962 C.ar    1  UNL1       -0.0020
      4 C          62.6261   86.4523   11.5689 C.ar    1  UNL1        0.0317
      5 C          62.0882   85.6151   10.4466 C.ar    1  UNL1        0.0043
      6 C          61.3215   86.2604    9.3304 C.ar    1  UNL1        0.0208
      7 C          61.0927   87.7428    9.3367 C.ar    1  UNL1        0.1005
      8 N          61.6306   88.5800   10.4591 N.ar    1  UNL1       -0.2268
      9 C          62.3973   87.9347   11.5752 C.ar    1  UNL1        0.1435
     10 N          63.0429   88.4981   12.8063 N.ar    1  UNL1       -0.3125
     11 C          63.8635   84.7239   13.1896 C.3     1  UNL1        0.0692
     12 C          63.2070   84.0203   14.3404 C.2     1  UNL1        0.0548
     13 O          63.8157   82.7688   14.9000 O.co2   1  UNL1       -0.5488
     14 O          61.9420   84.5683   14.9315 O.co2   1  UNL1       -0.5488
     15 C          63.0581   89.9423   13.2116 C.3     1  UNL1        0.1338
     16 C          63.9582   90.9107   12.5033 C.ar    1  UNL1        0.0005
     17 C          65.1140   91.5306   13.2314 C.ar    1  UNL1       -0.0011
     18 C          66.0142   92.4991   12.5231 C.ar    1  UNL1        0.0181
     19 C          65.7587   92.8477   11.0867 C.ar    1  UNL1        0.1057
     20 C          64.6029   92.2278   10.3587 C.ar    1  UNL1        0.0181
     21 C          63.7027   91.2593   11.0669 C.ar    1  UNL1       -0.0011
     22 S          66.6589   93.8161   10.3784 S.O2    1  UNL1        0.0104
     23 C          67.5591   94.7846    9.6701 C.3     1  UNL1        0.1816
     24 O          65.5604   94.8376   10.3789 O.2     1  UNL1       -0.1686
     25 O          67.7574   92.7947   10.3779 O.2     1  UNL1       -0.1686
@<TRIPOS>UNITY_ATOM_ATTR
13 1
charge -1
@<TRIPOS>BOND
     1     1     2    1
     2     2     3   ar
     3     3    11    1
     4    11    12    1
     5    12    13   ar
     6    12    14   ar
     7     3     4   ar
     8     4     5   ar
     9     5     6   ar
    10     6     7   ar
    11     7     8   ar
    12     8     9   ar
    13     9    10   ar
    14    10    15    1
    15    15    16    1
    16    16    17   ar
    17    17    18   ar
    18    18    19   ar
    19    19    22    1
    20    22    23    1
    21    22    24    2
    22    22    25    2
    23    19    20   ar
    24    20    21   ar
    25    10     2   ar
    26    21    16   ar
    27     9     4   ar
@<TRIPOS>MOLECULE
*****
 25 27 0 0 0
SMALL
GASTEIGER

@<TRIPOS>ATOM
      1 C          60.6280   89.3380    9.7074 C.3     1  UNL1        0.0497
      2 C          61.3280   88.2467   10.4618 C.ar    1  UNL1        0.0355
      3 C          61.3665   86.7963   10.0812 C.ar    1  UNL1       -0.0020
      4 C          62.1747   86.0675   11.1135 C.ar    1  UNL1        0.0317
      5 C          62.5504   84.6225   11.2575 C.ar    1  UNL1        0.0043
      6 C          63.3871   84.1774   12.4202 C.ar    1  UNL1        0.0208
      7 C          63.8481   85.1774   13.4388 C.ar    1  UNL1        0.1005
      8 N          63.4725   86.6224   13.2948 N.ar    1  UNL1       -0.2268
      9 C          62.6357   87.0674   12.1321 C.ar    1  UNL1        0.1435
     10 N          62.1125   88.4143   11.7294 N.ar    1  UNL1       -0.3125
     11 C          60.7117   86.1825    8.8794 C.3     1  UNL1        0.0692
     12 C          61.5513   85.5526    7.8076 C.2     1  UNL1        0.0548
     13 O          60.9031   85.0139    6.5668 O.co2   1  UNL1       -0.5488
     14 O          63.0389   85.4615    7.9768 O.co2   1  UNL1       -0.5488
     15 C          62.3346   89.7025   12.4650 C.3     1  UNL1        0.1338
     16 C          63.3484   90.6875   11.9632 C.ar    1  UNL1        0.0005
     17 C          63.3130   91.1373   10.5326 C.ar    1  UNL1       -0.0011
     18 C          64.3267   92.1224   10.0308 C.ar    1  UNL1        0.0181
     19 C          65.3759   92.6578   10.9595 C.ar    1  UNL1        0.1057
     20 C          65.4114   92.2080   12.3900 C.ar    1  UNL1        0.0181
     21 C          64.3976   91.2229   12.8919 C.ar    1  UNL1       -0.0011
     22 S          66.3897   93.6429   10.4577 S.O2    1  UNL1        0.0104
     23 C          67.4034   94.6280    9.9558 C.3     1  UNL1        0.1816
     24 O          67.3229   92.5153   10.1294 O.2     1  UNL1       -0.1686
     25 O          65.4565   94.7705   10.7859 O.2     1  UNL1       -0.1686
@<TRIPOS>UNITY_ATOM_ATTR
13 1
charge -1
@<TRIPOS>BOND
     1     1     2    1
     2     2     3   ar
     3     3    11    1
     4    11    12    1
     5    12    13   ar
     6    12    14   ar
     7     3     4   ar
     8     4     5   ar
     9     5     6   ar
    10     6     7   ar
    11     7     8   ar
    12     8     9   ar
    13     9    10   ar
    14    10    15    1
    15    15    16    1
    16    16    17   ar
    17    17    18   ar
    18    18    19   ar
    19    19    22    1
    20    22    23    1
    21    22    24    2
    22    22    25    2
    23    19    20   ar
    24    20    21   ar
    25    10     2   ar
    26    21    16   ar
    27     9     4   ar
@<TRIPOS>MOLECULE
*****
 25 27 0 0 0
SMALL
GASTEIGER

@<TRIPOS>ATOM
      1 C          61.0271   89.3385    9.4902 C.3     1  UNL1        0.0497
      2 C          61.7490   88.5753   10.5609 C.ar    1  UNL1        0.0355
      3 C          61.8283   87.0821   10.6784 C.ar    1  UNL1       -0.0020
      4 C          62.6467   86.7553   11.8923 C.ar    1  UNL1        0.0317
      5 C          63.0586   85.4488   12.5032 C.ar    1  UNL1        0.0043
      6 C          63.8970   85.4336   13.7468 C.ar    1  UNL1        0.0208
      7 C          64.3236   86.7249   14.3796 C.ar    1  UNL1        0.1005
      8 N          63.9117   88.0315   13.7687 N.ar    1  UNL1       -0.2268
      9 C          63.0732   88.0467   12.5251 C.ar    1  UNL1        0.1435
     10 N          62.5185   89.1715   11.7022 N.ar    1  UNL1       -0.3125
     11 C          61.1995   86.0897    9.7457 C.3     1  UNL1        0.0692
     12 C          61.8445   85.7882    8.4254 C.2     1  UNL1        0.0548
     13 O          63.3268   85.5721    8.3468 O.co2   1  UNL1       -0.5488
     14 O          61.0072   85.7029    7.1838 O.co2   1  UNL1       -0.5488
     15 C          62.7011   90.6355   11.9732 C.3     1  UNL1        0.1338
     16 C          63.9206   91.1170   12.7017 C.ar    1  UNL1        0.0005
     17 C          65.0193   91.8083   11.9500 C.ar    1  UNL1       -0.0011
     18 C          66.2388   92.2899   12.6785 C.ar    1  UNL1        0.0181
     19 C          66.3597   92.0802   14.1588 C.ar    1  UNL1        0.1057
     20 C          65.2611   91.3889   14.9106 C.ar    1  UNL1        0.0181
     21 C          64.0416   90.9073   14.1821 C.ar    1  UNL1       -0.0011
     22 S          67.5793   92.5617   14.8873 S.O2    1  UNL1        0.0104
     23 C          68.7989   93.0433   15.6159 C.3     1  UNL1        0.1816
     24 O          66.7454   92.8322   16.1045 O.2     1  UNL1       -0.1686
     25 O          68.4133   92.2913   13.6702 O.2     1  UNL1       -0.1686
@<TRIPOS>UNITY_ATOM_ATTR
13 1
charge -1
@<TRIPOS>BOND
     1     1     2    1
     2     2     3   ar
     3     3    11    1
     4    11    12    1
     5    12    13   ar
     6    12    14   ar
     7     3     4   ar
     8     4     5   ar
     9     5     6   ar
    10     6     7   ar
    11     7     8   ar
    12     8     9   ar
    13     9    10   ar
    14    10    15    1
    15    15    16    1
    16    16    17   ar
    17    17    18   ar
    18    18    19   ar
    19    19    22    1
    20    22    23    1
    21    22    24    2
    22    22    25    2
    23    19    20   ar
    24    20    21   ar
    25    10     2   ar
    26    21    16   ar
    27     9     4   ar
@<TRIPOS>MOLECULE
*****
 25 27 0 0 0
SMALL
GASTEIGER

@<TRIPOS>ATOM
      1 C          66.2747   92.0257   15.1862 C.3     1  UNL1        0.0497
      2 C          65.2960   91.6335   14.1192 C.ar    1  UNL1        0.0355
      3 C          65.2420   92.1866   12.7259 C.ar    1  UNL1       -0.0020
      4 C          64.1121   91.5144   12.0038 C.ar    1  UNL1        0.0317
      5 C          63.5867   91.6591   10.6063 C.ar    1  UNL1        0.0043
      6 C          62.4170   90.8352   10.1558 C.ar    1  UNL1        0.0208
      7 C          61.7727   89.8667   11.1028 C.ar    1  UNL1        0.1005
      8 N          62.2981   89.7220   12.5003 N.ar    1  UNL1       -0.2268
      9 C          63.4678   90.5458   12.9508 C.ar    1  UNL1        0.1435
     10 N          64.1995   90.6195   14.2582 N.ar    1  UNL1       -0.3125
     11 C          66.1572   93.2289   12.1550 C.3     1  UNL1        0.0692
     12 C          67.0840   92.8777   11.0290 C.2     1  UNL1        0.0548
     13 O          66.8112   93.3896    9.6456 O.co2   1  UNL1       -0.5488
     14 O          68.2836   92.0146   11.2863 O.co2   1  UNL1       -0.5488
     15 C          63.8891   89.8195   15.4885 C.3     1  UNL1        0.1338
     16 C          63.8377   88.3222   15.4164 C.ar    1  UNL1        0.0005
     17 C          64.3300   87.6130   14.1897 C.ar    1  UNL1       -0.0011
     18 C          64.2786   86.1157   14.1175 C.ar    1  UNL1        0.0181
     19 C          63.7348   85.3274   15.2721 C.ar    1  UNL1        0.1057
     20 C          63.2425   86.0365   16.4987 C.ar    1  UNL1        0.0181
     21 C          63.2939   87.5339   16.5709 C.ar    1  UNL1       -0.0011
     22 S          63.6835   83.8300   15.1999 S.O2    1  UNL1        0.0104
     23 C          63.6321   82.3327   15.1278 C.3     1  UNL1        0.1816
     24 O          64.9792   83.8220   14.4444 O.2     1  UNL1       -0.1686
     25 O          62.3876   83.8380   15.9555 O.2     1  UNL1       -0.1686
@<TRIPOS>UNITY_ATOM_ATTR
13 1
charge -1
@<TRIPOS>BOND
     1     1     2    1
     2     2     3   ar
     3     3    11    1
     4    11    12    1
     5    12    13   ar
     6    12    14   ar
     7     3     4   ar
     8     4     5   ar
     9     5     6   ar
    10     6     7   ar
    11     7     8   ar
    12     8     9   ar
    13     9    10   ar
    14    10    15    1
    15    15    16    1
    16    16    17   ar
    17    17    18   ar
    18    18    19   ar
    19    19    22    1
    20    22    23    1
    21    22    24    2
    22    22    25    2
    23    19    20   ar
    24    20    21   ar
    25    10     2   ar
    26    21    16   ar
    27     9     4   ar
@<TRIPOS>MOLECULE
*****
 25 27 0 0 0
SMALL
GASTEIGER

@<TRIPOS>ATOM
      1 C          64.9381   90.0764   14.9609 C.3     1  UNL1        0.0497
      2 C          64.2009   89.4143   13.8348 C.ar    1  UNL1        0.0355
      3 C          63.6255   90.1022   12.6325 C.ar    1  UNL1       -0.0020
      4 C          62.9786   89.0610   11.7679 C.ar    1  UNL1        0.0317
      5 C          62.2524   89.1534   10.4587 C.ar    1  UNL1        0.0043
      6 C          61.7017   87.9142    9.8176 C.ar    1  UNL1        0.0208
      7 C          61.8773   86.5827   10.4856 C.ar    1  UNL1        0.1005
      8 N          62.6035   86.4903   11.7948 N.ar    1  UNL1       -0.2268
      9 C          63.1542   87.7295   12.4359 C.ar    1  UNL1        0.1435
     10 N          63.9096   87.9479   13.7133 N.ar    1  UNL1       -0.3125
     11 C          63.6863   91.5732   12.3451 C.3     1  UNL1        0.0692
     12 C          65.0126   92.2428   12.1384 C.2     1  UNL1        0.0548
     13 O          65.6771   92.1920   10.7946 O.co2   1  UNL1       -0.5488
     14 O          65.6744   92.9633   13.2755 O.co2   1  UNL1       -0.5488
     15 C          64.3044   86.8861   14.6966 C.3     1  UNL1        0.1338
     16 C          63.8900   85.4625   14.4700 C.ar    1  UNL1        0.0005
     17 C          64.7198   84.5700   13.5953 C.ar    1  UNL1       -0.0011
     18 C          64.3055   83.1463   13.3686 C.ar    1  UNL1        0.0181
     19 C          63.0613   82.6150   14.0166 C.ar    1  UNL1        0.1057
     20 C          62.2315   83.5075   14.8912 C.ar    1  UNL1        0.0181
     21 C          62.6458   84.9312   15.1179 C.ar    1  UNL1       -0.0011
     22 S          62.6469   81.1914   13.7899 S.O2    1  UNL1        0.0104
     23 C          62.2326   79.7677   13.5632 C.3     1  UNL1        0.1816
     24 O          63.9939   80.8931   13.2010 O.2     1  UNL1       -0.1686
     25 O          61.2999   81.4895   14.3787 O.2     1  UNL1       -0.1686
@<TRIPOS>UNITY_ATOM_ATTR
13 1
charge -1
@<TRIPOS>BOND
     1     1     2    1
     2     2     3   ar
     3     3    11    1
     4    11    12    1
     5    12    13   ar
     6    12    14   ar
     7     3     4   ar
     8     4     5   ar
     9     5     6   ar
    10     6     7   ar
    11     7     8   ar
    12     8     9   ar
    13     9    10   ar
    14    10    15    1
    15    15    16    1
    16    16    17   ar
    17    17    18   ar
    18    18    19   ar
    19    19    22    1
    20    22    23    1
    21    22    24    2
    22    22    25    2
    23    19    20   ar
    24    20    21   ar
    25    10     2   ar
    26    21    16   ar
    27     9     4   ar
@<TRIPOS>MOLECULE
*****
 25 27 0 0 0
SMALL
GASTEIGER

@<TRIPOS>ATOM
      1 C          62.0628   85.5432    9.2691 C.3     1  UNL1        0.0497
      2 C          62.6443   85.4025   10.6446 C.ar    1  UNL1        0.0355
      3 C          63.3822   84.2078   11.1719 C.ar    1  UNL1       -0.0020
      4 C          63.7840   84.4987   12.5875 C.ar    1  UNL1        0.0317
      5 C          64.5324   83.6896   13.6049 C.ar    1  UNL1        0.0043
      6 C          64.7912   84.2551   14.9699 C.ar    1  UNL1        0.0208
      7 C          64.3017   85.6297   15.3175 C.ar    1  UNL1        0.1005
      8 N          63.5533   86.4388   14.3000 N.ar    1  UNL1       -0.2268
      9 C          63.2945   85.8734   12.9351 C.ar    1  UNL1        0.1435
     10 N          62.5901   86.4319   11.7343 N.ar    1  UNL1       -0.3125
     11 C          63.6681   82.9439   10.4164 C.3     1  UNL1        0.0692
     12 C          63.0615   81.6477   10.8660 C.2     1  UNL1        0.0548
     13 O          63.1344   80.4387    9.9812 O.co2   1  UNL1       -0.5488
     14 O          62.3821   81.5607   12.2005 O.co2   1  UNL1       -0.5488
     15 C          61.9449   87.7827   11.6398 C.3     1  UNL1        0.1338
     16 C          62.7831   89.0228   11.7367 C.ar    1  UNL1        0.0005
     17 C          62.9043   89.9404   10.5562 C.ar    1  UNL1       -0.0011
     18 C          63.7426   91.1805   10.6531 C.ar    1  UNL1        0.0181
     19 C          64.4596   91.5031   11.9306 C.ar    1  UNL1        0.1057
     20 C          64.3384   90.5856   13.1110 C.ar    1  UNL1        0.0181
     21 C          63.5001   89.3455   13.0141 C.ar    1  UNL1       -0.0011
     22 S          65.2978   92.7433   12.0275 S.O2    1  UNL1        0.0104
     23 C          66.1361   93.9834   12.1244 C.3     1  UNL1        0.1816
     24 O          65.2219   92.9109   10.5388 O.2     1  UNL1       -0.1686
     25 O          65.3738   92.5756   13.5162 O.2     1  UNL1       -0.1686
@<TRIPOS>UNITY_ATOM_ATTR
13 1
charge -1
@<TRIPOS>BOND
     1     1     2    1
     2     2     3   ar
     3     3    11    1
     4    11    12    1
     5    12    13   ar
     6    12    14   ar
     7     3     4   ar
     8     4     5   ar
     9     5     6   ar
    10     6     7   ar
    11     7     8   ar
    12     8     9   ar
    13     9    10   ar
    14    10    15    1
    15    15    16    1
    16    16    17   ar
    17    17    18   ar
    18    18    19   ar
    19    19    22    1
    20    22    23    1
    21    22    24    2
    22    22    25    2
    23    19    20   ar
    24    20    21   ar
    25    10     2   ar
    26    21    16   ar
    27     9     4   ar
