@<TRIPOS>MOLECULE
*****
 31 33 0 0 0
SMALL
GASTEIGER

@<TRIPOS>ATOM
      1 N          63.9522   85.6217   14.1258 N.am    1  UNL1       -0.2620
      2 C          64.5992   86.8461   14.7022 C.3     1  UNL1        0.1401
      3 C          64.1785   88.0253   13.8760 C.ar    1  UNL1        0.0830
      4 N          64.5041   89.4863   13.9731 N.ar    1  UNL1       -0.2524
      5 C          63.9227   90.4517   12.9831 C.ar    1  UNL1        0.0563
      6 C          64.2484   91.9127   13.0802 C.3     1  UNL1        0.0518
      7 C          63.0158   89.9561   11.8960 C.ar    1  UNL1        0.0072
      8 C          62.6902   88.4950   11.7989 C.ar    1  UNL1        0.0048
      9 C          63.2715   87.5297   12.7889 C.ar    1  UNL1        0.0686
     10 C          63.1317   86.0442   12.9433 C.2     1  UNL1        0.2509
     11 O          62.3147   85.1400   12.0687 O.2     1  UNL1       -0.2698
     12 C          61.7832   87.9994   10.7118 C.ar    1  UNL1        0.0106
     13 C          62.3563   87.2807    9.5265 C.ar    1  UNL1        0.0017
     14 C          61.4493   86.7850    8.4394 C.ar    1  UNL1        0.0114
     15 C          59.9693   87.0081    8.5377 C.ar    1  UNL1        0.0585
     16 CL         59.0623   86.5125    7.4506 Cl      1  UNL1       -0.0822
     17 C          59.3961   87.7268    9.7230 C.ar    1  UNL1        0.0228
     18 C          60.3031   88.2225   10.8101 C.ar    1  UNL1        0.0585
     19 CL         59.7300   88.9412   11.9954 Cl      1  UNL1       -0.0822
     20 C          62.4344   90.9214   10.9060 C.3     1  UNL1        0.0934
     21 N          63.3125   91.5444    9.8615 N.3     1  UNL1       -0.3174
     22 H          63.9968   92.1525   10.3113 H       1  UNL1        0.1192
     23 H          62.7404   92.0928    9.2194 H       1  UNL1        0.1192
     24 C          64.0998   84.2209   14.6413 C.3     1  UNL1        0.1798
     25 N          63.3289   82.3118   13.0566 N.am    1  UNL1       -0.2781
     26 C          63.0959   83.1727   14.2627 C.2     1  UNL1        0.2460
     27 O          61.8589   82.9853   15.0902 O.2     1  UNL1       -0.2730
     28 C          62.3074   79.9474   13.3973 C.3     1  UNL1        0.0233
     29 C          62.3249   81.2636   12.6781 C.3     1  UNL1        0.0935
     30 C          64.5659   82.4992   12.2291 C.3     1  UNL1        0.0935
     31 C          64.4500   82.7835   10.7609 C.3     1  UNL1        0.0233
@<TRIPOS>BOND
     1    28    29    1
     2    29    25    1
     3    25    30    1
     4    30    31    1
     5    25    26   am
     6    26    27    2
     7    26    24    1
     8    24     1    1
     9     1     2    1
    10     2     3    1
    11     3     4   ar
    12     4     5   ar
    13     5     6    1
    14     5     7   ar
    15     7    20    1
    16    20    21    1
    17     7     8   ar
    18     8    12    1
    19    12    13   ar
    20    13    14   ar
    21    14    15   ar
    22    15    16    1
    23    15    17   ar
    24    17    18   ar
    25    18    19    1
    26     8     9   ar
    27     9    10    1
    28    10    11    2
    29    10     1   am
    30     9     3   ar
    31    18    12   ar
    32    21    22    1
    33    21    23    1
@<TRIPOS>MOLECULE
*****
 31 33 0 0 0
SMALL
GASTEIGER

@<TRIPOS>ATOM
      1 N          62.7102   90.2301   11.9858 N.am    1  UNL1       -0.2620
      2 C          61.7468   90.7990   10.9867 C.3     1  UNL1        0.1401
      3 C          61.2192   89.6675   10.1551 C.ar    1  UNL1        0.0830
      4 N          60.2409   89.6282    9.0189 N.ar    1  UNL1       -0.2524
      5 C          59.8998   88.3206    8.3677 C.ar    1  UNL1        0.0563
      6 C          58.9214   88.2813    7.2314 C.3     1  UNL1        0.0518
      7 C          60.5371   87.0524    8.8529 C.ar    1  UNL1        0.0072
      8 C          61.5155   87.0918    9.9893 C.ar    1  UNL1        0.0048
      9 C          61.8565   88.3993   10.6404 C.ar    1  UNL1        0.0686
     10 C          62.7780   88.7470   11.7718 C.2     1  UNL1        0.2509
     11 O          63.6195   87.7812   12.5521 O.2     1  UNL1       -0.2698
     12 C          62.1528   85.8235   10.4745 C.ar    1  UNL1        0.0106
     13 C          61.8282   85.2960   11.8406 C.ar    1  UNL1        0.0017
     14 C          62.4655   84.0278   12.3258 C.ar    1  UNL1        0.0114
     15 C          63.4274   83.2871   11.4450 C.ar    1  UNL1        0.0585
     16 CL         64.0648   82.0189   11.9302 Cl      1  UNL1       -0.0822
     17 C          63.7521   83.8146   10.0788 C.ar    1  UNL1        0.0228
     18 C          63.1148   85.0828    9.5935 C.ar    1  UNL1        0.0585
     19 CL         63.4394   85.6104    8.2274 Cl      1  UNL1       -0.0822
     20 C          60.1960   85.7448    8.2019 C.3     1  UNL1        0.0934
     21 N          60.6877   85.4460    6.8167 N.3     1  UNL1       -0.3174
     22 H          60.2488   86.0859    6.1546 H       1  UNL1        0.1192
     23 H          60.4483   84.4855    6.5707 H       1  UNL1        0.1192
     24 C          63.4720   91.0078   13.0178 C.3     1  UNL1        0.1798
     25 N          65.7605   92.0183   13.7188 N.am    1  UNL1       -0.2781
     26 C          64.7644   91.6749   12.6511 C.2     1  UNL1        0.2460
     27 O          65.0609   91.9986   11.2167 O.2     1  UNL1       -0.2730
     28 C          68.3070   91.8722   13.2247 C.3     1  UNL1        0.0233
     29 C          67.0530   92.6854   13.3521 C.3     1  UNL1        0.0935
     30 C          65.4641   91.6946   15.1531 C.3     1  UNL1        0.0935
     31 C          66.0654   92.5239   16.2489 C.3     1  UNL1        0.0233
@<TRIPOS>BOND
     1    28    29    1
     2    29    25    1
     3    25    30    1
     4    30    31    1
     5    25    26   am
     6    26    27    2
     7    26    24    1
     8    24     1    1
     9     1     2    1
    10     2     3    1
    11     3     4   ar
    12     4     5   ar
    13     5     6    1
    14     5     7   ar
    15     7    20    1
    16    20    21    1
    17     7     8   ar
    18     8    12    1
    19    12    13   ar
    20    13    14   ar
    21    14    15   ar
    22    15    16    1
    23    15    17   ar
    24    17    18   ar
    25    18    19    1
    26     8     9   ar
    27     9    10    1
    28    10    11    2
    29    10     1   am
    30     9     3   ar
    31    18    12   ar
    32    21    22    1
    33    21    23    1
@<TRIPOS>MOLECULE
*****
 31 33 0 0 0
SMALL
GASTEIGER

@<TRIPOS>ATOM
      1 N          62.5866   90.2832   11.9824 N.am    1  UNL1       -0.2620
      2 C          62.7532   90.1015   13.4620 C.3     1  UNL1        0.1401
      3 C          63.9009   90.9581   13.9080 C.ar    1  UNL1        0.0830
      4 N          64.5219   91.1824   15.2549 N.ar    1  UNL1       -0.2524
      5 C          65.6858   92.1179   15.3978 C.ar    1  UNL1        0.0563
      6 C          66.3067   92.3422   16.7446 C.3     1  UNL1        0.0518
      7 C          66.2286   92.8290   14.1937 C.ar    1  UNL1        0.0072
      8 C          65.6076   92.6047   12.8468 C.ar    1  UNL1        0.0048
      9 C          64.4438   91.6692   12.7040 C.ar    1  UNL1        0.0686
     10 C          63.6315   91.2521   11.5140 C.2     1  UNL1        0.2509
     11 O          63.8294   91.7215   10.1031 O.2     1  UNL1       -0.2698
     12 C          66.1505   93.3158   11.6428 C.ar    1  UNL1        0.0106
     13 C          65.5081   94.5857   11.1689 C.ar    1  UNL1        0.0017
     14 C          66.0510   95.2968    9.9649 C.ar    1  UNL1        0.0114
     15 C          67.2362   94.7380    9.2348 C.ar    1  UNL1        0.0585
     16 CL         67.7790   95.4491    8.0308 Cl      1  UNL1       -0.0822
     17 C          67.8786   93.4680    9.7088 C.ar    1  UNL1        0.0228
     18 C          67.3358   92.7569   10.9128 C.ar    1  UNL1        0.0585
     19 CL         67.9781   91.4870   11.3868 Cl      1  UNL1       -0.0822
     20 C          67.3924   93.7645   14.3366 C.3     1  UNL1        0.0934
     21 N          68.7553   93.2233   14.6524 N.3     1  UNL1       -0.3174
     22 H          68.7502   92.8132   15.5864 H       1  UNL1        0.1192
     23 H          69.4382   93.9800   14.6171 H       1  UNL1        0.1192
     24 C          61.5562   89.6136   11.1223 C.3     1  UNL1        0.1798
     25 N          61.0145   87.6226    9.5436 N.am    1  UNL1       -0.2781
     26 C          61.7102   88.1673   10.7557 C.2     1  UNL1        0.2460
     27 O          62.5601   87.2657   11.6012 O.2     1  UNL1       -0.2730
     28 C          62.4270   85.7006    8.5136 C.3     1  UNL1        0.0233
     29 C          61.1686   86.1762    9.1770 C.3     1  UNL1        0.0935
     30 C          60.1646   88.5242    8.6981 C.3     1  UNL1        0.0935
     31 C          59.3032   87.9447    7.6154 C.3     1  UNL1        0.0233
@<TRIPOS>BOND
     1    28    29    1
     2    29    25    1
     3    25    30    1
     4    30    31    1
     5    25    26   am
     6    26    27    2
     7    26    24    1
     8    24     1    1
     9     1     2    1
    10     2     3    1
    11     3     4   ar
    12     4     5   ar
    13     5     6    1
    14     5     7   ar
    15     7    20    1
    16    20    21    1
    17     7     8   ar
    18     8    12    1
    19    12    13   ar
    20    13    14   ar
    21    14    15   ar
    22    15    16    1
    23    15    17   ar
    24    17    18   ar
    25    18    19    1
    26     8     9   ar
    27     9    10    1
    28    10    11    2
    29    10     1   am
    30     9     3   ar
    31    18    12   ar
    32    21    22    1
    33    21    23    1
@<TRIPOS>MOLECULE
*****
 31 33 0 0 0
SMALL
GASTEIGER

@<TRIPOS>ATOM
      1 N          62.7214   90.1659   12.4780 N.am    1  UNL1       -0.2620
      2 C          61.8491   90.8451   11.4642 C.3     1  UNL1        0.1401
      3 C          61.3821   89.8086   10.4856 C.ar    1  UNL1        0.0830
      4 N          60.5009   89.8962    9.2750 N.ar    1  UNL1       -0.2524
      5 C          60.2032   88.6637    8.4733 C.ar    1  UNL1        0.0563
      6 C          59.3220   88.7513    7.2627 C.3     1  UNL1        0.0518
      7 C          60.7869   87.3439    8.8823 C.ar    1  UNL1        0.0072
      8 C          61.6682   87.2564   10.0930 C.ar    1  UNL1        0.0048
      9 C          61.9658   88.4888   10.8946 C.ar    1  UNL1        0.0686
     10 C          62.7935   88.7096   12.1259 C.2     1  UNL1        0.2509
     11 O          63.5589   87.6586   12.8739 O.2     1  UNL1       -0.2698
     12 C          62.2519   85.9365   10.5020 C.ar    1  UNL1        0.0106
     13 C          61.9469   85.3691   11.8565 C.ar    1  UNL1        0.0017
     14 C          62.5306   84.0492   12.2655 C.ar    1  UNL1        0.0114
     15 C          63.4192   83.2968   11.3199 C.ar    1  UNL1        0.0585
     16 CL         64.0029   81.9769   11.7289 Cl      1  UNL1       -0.0822
     17 C          63.7242   83.8643    9.9653 C.ar    1  UNL1        0.0228
     18 C          63.1405   85.1841    9.5563 C.ar    1  UNL1        0.0585
     19 CL         63.4455   85.7516    8.2017 Cl      1  UNL1       -0.0822
     20 C          60.4893   86.1115    8.0806 C.3     1  UNL1        0.0934
     21 N          59.1079   85.8819    7.5432 N.3     1  UNL1       -0.3174
     22 H          58.4603   85.7416    8.3187 H       1  UNL1        0.1192
     23 H          59.1083   85.0545    6.9467 H       1  UNL1        0.1192
     24 C          63.4020   90.8269   13.6398 C.3     1  UNL1        0.1798
     25 N          65.7651   91.7222   13.0362 N.am    1  UNL1       -0.2781
     26 C          64.8938   90.7516   13.7770 C.2     1  UNL1        0.2460
     27 O          65.5144   89.7056   14.6551 O.2     1  UNL1       -0.2730
     28 C          67.9267   92.2022   14.3954 C.3     1  UNL1        0.0233
     29 C          67.2570   91.6468   13.1735 C.3     1  UNL1        0.0935
     30 C          65.1446   92.7681   12.1582 C.3     1  UNL1        0.0935
     31 C          65.1340   92.5874   10.6692 C.3     1  UNL1        0.0233
@<TRIPOS>BOND
     1    28    29    1
     2    29    25    1
     3    25    30    1
     4    30    31    1
     5    25    26   am
     6    26    27    2
     7    26    24    1
     8    24     1    1
     9     1     2    1
    10     2     3    1
    11     3     4   ar
    12     4     5   ar
    13     5     6    1
    14     5     7   ar
    15     7    20    1
    16    20    21    1
    17     7     8   ar
    18     8    12    1
    19    12    13   ar
    20    13    14   ar
    21    14    15   ar
    22    15    16    1
    23    15    17   ar
    24    17    18   ar
    25    18    19    1
    26     8     9   ar
    27     9    10    1
    28    10    11    2
    29    10     1   am
    30     9     3   ar
    31    18    12   ar
    32    21    22    1
    33    21    23    1
@<TRIPOS>MOLECULE
*****
 31 33 0 0 0
SMALL
GASTEIGER

@<TRIPOS>ATOM
      1 N          63.7790   85.3246   13.4591 N.am    1  UNL1       -0.2620
      2 C          62.8815   85.2545   12.2593 C.3     1  UNL1        0.1401
      3 C          62.6115   86.6566   11.7997 C.ar    1  UNL1        0.0830
      4 N          61.7947   87.2013   10.6657 N.ar    1  UNL1       -0.2524
      5 C          61.7085   88.6829   10.4474 C.ar    1  UNL1        0.0563
      6 C          60.8918   89.2277    9.3134 C.3     1  UNL1        0.0518
      7 C          62.4392   89.6197   11.3632 C.ar    1  UNL1        0.0072
      8 C          63.2560   89.0748   12.4973 C.ar    1  UNL1        0.0048
      9 C          63.3421   87.5933   12.7155 C.ar    1  UNL1        0.0686
     10 C          64.0637   86.7701   13.7410 C.2     1  UNL1        0.2509
     11 O          64.9196   87.2995   14.8533 O.2     1  UNL1       -0.2698
     12 C          63.9867   90.0115   13.4131 C.ar    1  UNL1        0.0106
     13 C          65.1940   90.7526   12.9202 C.ar    1  UNL1        0.0017
     14 C          65.9247   91.6893   13.8360 C.ar    1  UNL1        0.0114
     15 C          65.4480   91.8850   15.2447 C.ar    1  UNL1        0.0585
     16 CL         66.1786   92.8217   16.1604 Cl      1  UNL1       -0.0822
     17 C          64.2405   91.1439   15.7376 C.ar    1  UNL1        0.0228
     18 C          63.5098   90.2072   14.8218 C.ar    1  UNL1        0.0585
     19 CL         62.3025   89.4661   15.3147 Cl      1  UNL1       -0.0822
     20 C          62.3531   91.1012   11.1450 C.3     1  UNL1        0.0934
     21 N          63.1228   91.7406   10.0276 N.3     1  UNL1       -0.3174
     22 H          64.1226   91.6527   10.2095 H       1  UNL1        0.1192
     23 H          62.8741   92.7278    9.9648 H       1  UNL1        0.1192
     24 C          64.3003   84.1547   14.2398 C.3     1  UNL1        0.1798
     25 N          63.3228   81.8338   13.6010 N.am    1  UNL1       -0.2781
     26 C          63.3985   82.9959   14.5464 C.2     1  UNL1        0.2460
     27 O          62.5725   82.9991   15.7986 O.2     1  UNL1       -0.2730
     28 C          60.9371   80.8797   13.9861 C.3     1  UNL1        0.0233
     29 C          62.4210   80.6750   13.9076 C.3     1  UNL1        0.0935
     30 C          64.1487   81.8306   12.3489 C.3     1  UNL1        0.0935
     31 C          63.4794   81.9053   11.0086 C.3     1  UNL1        0.0233
@<TRIPOS>BOND
     1    28    29    1
     2    29    25    1
     3    25    30    1
     4    30    31    1
     5    25    26   am
     6    26    27    2
     7    26    24    1
     8    24     1    1
     9     1     2    1
    10     2     3    1
    11     3     4   ar
    12     4     5   ar
    13     5     6    1
    14     5     7   ar
    15     7    20    1
    16    20    21    1
    17     7     8   ar
    18     8    12    1
    19    12    13   ar
    20    13    14   ar
    21    14    15   ar
    22    15    16    1
    23    15    17   ar
    24    17    18   ar
    25    18    19    1
    26     8     9   ar
    27     9    10    1
    28    10    11    2
    29    10     1   am
    30     9     3   ar
    31    18    12   ar
    32    21    22    1
    33    21    23    1
@<TRIPOS>MOLECULE
*****
 31 33 0 0 0
SMALL
GASTEIGER

@<TRIPOS>ATOM
      1 N          63.4449   84.6044   13.7836 N.am    1  UNL1       -0.2620
      2 C          63.7567   85.9213   14.4306 C.3     1  UNL1        0.1401
      3 C          63.4798   87.0056   13.4318 C.ar    1  UNL1        0.0830
      4 N          63.6050   88.4983   13.5103 N.ar    1  UNL1       -0.2524
      5 C          63.2472   89.3443   12.3243 C.ar    1  UNL1        0.0563
      6 C          63.3724   90.8370   12.4028 C.3     1  UNL1        0.0518
      7 C          62.7643   88.6976   11.0600 C.ar    1  UNL1        0.0072
      8 C          62.6391   87.2048   10.9816 C.ar    1  UNL1        0.0048
      9 C          62.9968   86.3589   12.1675 C.ar    1  UNL1        0.0686
     10 C          62.9753   84.8748   12.3849 C.2     1  UNL1        0.2509
     11 O          62.5575   83.8425   11.3801 O.2     1  UNL1       -0.2698
     12 C          62.1561   86.5581    9.7173 C.ar    1  UNL1        0.0106
     13 C          63.1218   85.8265    8.8328 C.ar    1  UNL1        0.0017
     14 C          62.6388   85.1798    7.5685 C.ar    1  UNL1        0.0114
     15 C          61.1903   85.2646    7.1887 C.ar    1  UNL1        0.0585
     16 CL         60.7073   84.6179    5.9243 Cl      1  UNL1       -0.0822
     17 C          60.2245   85.9962    8.0731 C.ar    1  UNL1        0.0228
     18 C          60.7075   86.6429    9.3375 C.ar    1  UNL1        0.0585
     19 CL         59.7418   87.3745   10.2219 Cl      1  UNL1       -0.0822
     20 C          62.4065   89.5435    9.8741 C.3     1  UNL1        0.0934
     21 N          61.1407   90.3481    9.8814 N.3     1  UNL1       -0.3174
     22 H          60.3379   89.7190    9.8907 H       1  UNL1        0.1192
     23 H          61.1047   90.9329    9.0465 H       1  UNL1        0.1192
     24 C          63.5792   83.2541   14.4230 C.3     1  UNL1        0.1798
     25 N          62.5508   81.0429   13.5269 N.am    1  UNL1       -0.2781
     26 C          63.6828   82.0263   13.5677 C.2     1  UNL1        0.2460
     27 O          64.9185   81.7816   12.7532 O.2     1  UNL1       -0.2730
     28 C          62.7309   79.9448   11.1792 C.3     1  UNL1        0.0233
     29 C          62.6545   79.8150   12.6716 C.3     1  UNL1        0.0935
     30 C          61.3152   81.2875   14.3414 C.3     1  UNL1        0.0935
     31 C          60.0805   80.4724   14.0943 C.3     1  UNL1        0.0233
@<TRIPOS>BOND
     1    28    29    1
     2    29    25    1
     3    25    30    1
     4    30    31    1
     5    25    26   am
     6    26    27    2
     7    26    24    1
     8    24     1    1
     9     1     2    1
    10     2     3    1
    11     3     4   ar
    12     4     5   ar
    13     5     6    1
    14     5     7   ar
    15     7    20    1
    16    20    21    1
    17     7     8   ar
    18     8    12    1
    19    12    13   ar
    20    13    14   ar
    21    14    15   ar
    22    15    16    1
    23    15    17   ar
    24    17    18   ar
    25    18    19    1
    26     8     9   ar
    27     9    10    1
    28    10    11    2
    29    10     1   am
    30     9     3   ar
    31    18    12   ar
    32    21    22    1
    33    21    23    1
@<TRIPOS>MOLECULE
*****
 31 33 0 0 0
SMALL
GASTEIGER

@<TRIPOS>ATOM
      1 N          63.8552   89.4259   13.4105 N.am    1  UNL1       -0.2620
      2 C          64.2635   88.5789   14.5791 C.3     1  UNL1        0.1401
      3 C          64.0074   87.1442   14.2238 C.ar    1  UNL1        0.0830
      4 N          64.2170   85.8689   14.9850 N.ar    1  UNL1       -0.2524
      5 C          63.8599   84.5538   14.3579 C.ar    1  UNL1        0.0563
      6 C          64.0695   83.2784   15.1191 C.3     1  UNL1        0.0518
      7 C          63.2933   84.5142   12.9696 C.ar    1  UNL1        0.0072
      8 C          63.0838   85.7897   12.2084 C.ar    1  UNL1        0.0048
      9 C          63.4408   87.1046   12.8355 C.ar    1  UNL1        0.0686
     10 C          63.3467   88.5148   12.3328 C.2     1  UNL1        0.2509
     11 O          62.8342   88.9392   10.9886 O.2     1  UNL1       -0.2698
     12 C          62.5171   85.7500   10.8201 C.ar    1  UNL1        0.0106
     13 C          63.2856   85.0881    9.7150 C.ar    1  UNL1        0.0017
     14 C          62.7190   85.0485    8.3267 C.ar    1  UNL1        0.0114
     15 C          61.3839   85.6708    8.0435 C.ar    1  UNL1        0.0585
     16 CL         60.8173   85.6312    6.6552 Cl      1  UNL1       -0.0822
     17 C          60.6154   86.3328    9.1486 C.ar    1  UNL1        0.0228
     18 C          61.1820   86.3724   10.5369 C.ar    1  UNL1        0.0585
     19 CL         60.4135   87.0343   11.6420 Cl      1  UNL1       -0.0822
     20 C          62.9363   83.1992   12.3425 C.3     1  UNL1        0.0934
     21 N          62.0826   82.2187   13.0907 N.3     1  UNL1       -0.3174
     22 H          62.5880   81.8849   13.9114 H       1  UNL1        0.1192
     23 H          61.8600   81.4295   12.4841 H       1  UNL1        0.1192
     24 C          63.9403   90.9215   13.3330 C.3     1  UNL1        0.1798
     25 N          65.9446   92.4558   13.9486 N.am    1  UNL1       -0.2781
     26 C          64.7269   91.6821   14.3591 C.2     1  UNL1        0.2460
     27 O          64.2958   91.6689   15.7958 O.2     1  UNL1       -0.2730
     28 C          68.2048   92.9767   15.1191 C.3     1  UNL1        0.0233
     29 C          66.7311   93.2164   14.9747 C.3     1  UNL1        0.0935
     30 C          66.3757   92.4690   12.5120 C.3     1  UNL1        0.0935
     31 C          66.2951   93.7380   11.7163 C.3     1  UNL1        0.0233
@<TRIPOS>BOND
     1    28    29    1
     2    29    25    1
     3    25    30    1
     4    30    31    1
     5    25    26   am
     6    26    27    2
     7    26    24    1
     8    24     1    1
     9     1     2    1
    10     2     3    1
    11     3     4   ar
    12     4     5   ar
    13     5     6    1
    14     5     7   ar
    15     7    20    1
    16    20    21    1
    17     7     8   ar
    18     8    12    1
    19    12    13   ar
    20    13    14   ar
    21    14    15   ar
    22    15    16    1
    23    15    17   ar
    24    17    18   ar
    25    18    19    1
    26     8     9   ar
    27     9    10    1
    28    10    11    2
    29    10     1   am
    30     9     3   ar
    31    18    12   ar
    32    21    22    1
    33    21    23    1
@<TRIPOS>MOLECULE
*****
 31 33 0 0 0
SMALL
GASTEIGER

@<TRIPOS>ATOM
      1 N          62.9938   90.2275   11.6273 N.am    1  UNL1       -0.2620
      2 C          62.0220   90.8097   10.6441 C.3     1  UNL1        0.1401
      3 C          61.3875   89.6767    9.8932 C.ar    1  UNL1        0.0830
      4 N          60.3568   89.6471    8.8039 N.ar    1  UNL1       -0.2524
      5 C          59.9056   88.3351    8.2336 C.ar    1  UNL1        0.0563
      6 C          58.8749   88.3055    7.1443 C.3     1  UNL1        0.0518
      7 C          60.4852   87.0527    8.7528 C.ar    1  UNL1        0.0072
      8 C          61.5160   87.0823    9.8422 C.ar    1  UNL1        0.0048
      9 C          61.9671   88.3943   10.4124 C.ar    1  UNL1        0.0686
     10 C          62.9599   88.7348   11.4841 C.2     1  UNL1        0.2509
     11 O          63.7755   87.7545   12.2739 O.2     1  UNL1       -0.2698
     12 C          62.0956   85.8000   10.3614 C.ar    1  UNL1        0.0106
     13 C          61.7268   85.3102   11.7303 C.ar    1  UNL1        0.0017
     14 C          62.3064   84.0278   12.2495 C.ar    1  UNL1        0.0114
     15 C          63.2549   83.2352   11.3997 C.ar    1  UNL1        0.0585
     16 CL         63.8345   81.9528   11.9189 Cl      1  UNL1       -0.0822
     17 C          63.6238   83.7250   10.0307 C.ar    1  UNL1        0.0228
     18 C          63.0441   85.0073    9.5115 C.ar    1  UNL1        0.0585
     19 CL         63.4130   85.4971    8.1426 Cl      1  UNL1       -0.0822
     20 C          60.0342   85.7407    8.1826 C.3     1  UNL1        0.0934
     21 N          60.4806   85.3254    6.8122 N.3     1  UNL1       -0.3174
     22 H          60.0828   85.9588    6.1186 H       1  UNL1        0.1192
     23 H          60.1638   84.3741    6.6251 H       1  UNL1        0.1192
     24 C          63.8493   91.0021   12.5855 C.3     1  UNL1        0.1798
     25 N          64.5965   91.4996   15.0235 N.am    1  UNL1       -0.2781
     26 C          63.6380   90.8595   14.0636 C.2     1  UNL1        0.2460
     27 O          62.4680   90.0768   14.5819 O.2     1  UNL1       -0.2730
     28 C          64.6854   92.5071   17.4167 C.3     1  UNL1        0.0233
     29 C          64.3851   91.3570   16.5017 C.3     1  UNL1        0.0935
     30 C          65.7664   92.2823   14.5053 C.3     1  UNL1        0.0935
     31 C          67.1605   91.7625   14.6964 C.3     1  UNL1        0.0233
@<TRIPOS>BOND
     1    28    29    1
     2    29    25    1
     3    25    30    1
     4    30    31    1
     5    25    26   am
     6    26    27    2
     7    26    24    1
     8    24     1    1
     9     1     2    1
    10     2     3    1
    11     3     4   ar
    12     4     5   ar
    13     5     6    1
    14     5     7   ar
    15     7    20    1
    16    20    21    1
    17     7     8   ar
    18     8    12    1
    19    12    13   ar
    20    13    14   ar
    21    14    15   ar
    22    15    16    1
    23    15    17   ar
    24    17    18   ar
    25    18    19    1
    26     8     9   ar
    27     9    10    1
    28    10    11    2
    29    10     1   am
    30     9     3   ar
    31    18    12   ar
    32    21    22    1
    33    21    23    1
@<TRIPOS>MOLECULE
*****
 31 33 0 0 0
SMALL
GASTEIGER

@<TRIPOS>ATOM
      1 N          63.7558   89.3371   13.4559 N.am    1  UNL1       -0.2620
      2 C          63.0032   90.3214   12.6104 C.3     1  UNL1        0.1401
      3 C          62.3199   89.5620   11.5121 C.ar    1  UNL1        0.0830
      4 N          61.4397   90.0063   10.3817 N.ar    1  UNL1       -0.2524
      5 C          60.8896   88.9970    9.4180 C.ar    1  UNL1        0.0563
      6 C          60.0093   89.4413    8.2877 C.3     1  UNL1        0.0518
      7 C          61.2198   87.5433    9.5847 C.ar    1  UNL1        0.0072
      8 C          62.1000   87.0989   10.7151 C.ar    1  UNL1        0.0048
      9 C          62.6501   88.1083   11.6788 C.ar    1  UNL1        0.0686
     10 C          63.5375   87.9693   12.8801 C.2     1  UNL1        0.2509
     11 O          64.1067   86.6876   13.4122 O.2     1  UNL1       -0.2698
     12 C          62.4302   85.6453   10.8818 C.ar    1  UNL1        0.0106
     13 C          62.0676   84.9346   12.1520 C.ar    1  UNL1        0.0017
     14 C          62.3977   83.4810   12.3187 C.ar    1  UNL1        0.0114
     15 C          63.0906   82.7379   11.2152 C.ar    1  UNL1        0.0585
     16 CL         63.4208   81.2842   11.3819 Cl      1  UNL1       -0.0822
     17 C          63.4533   83.4485    9.9449 C.ar    1  UNL1        0.0228
     18 C          63.1231   84.9022    9.7782 C.ar    1  UNL1        0.0585
     19 CL         63.4858   85.6128    8.5080 Cl      1  UNL1       -0.0822
     20 C          60.6697   86.5339    8.6211 C.3     1  UNL1        0.0934
     21 N          59.1969   86.4900    8.3405 N.3     1  UNL1       -0.3174
     22 H          58.6981   86.2093    9.1848 H       1  UNL1        0.1192
     23 H          59.0124   85.8165    7.5969 H       1  UNL1        0.1192
     24 C          64.5816   89.6633   14.6649 C.3     1  UNL1        0.1798
     25 N          66.0785   91.7868   14.6694 N.am    1  UNL1       -0.2781
     26 C          64.8056   91.0938   15.0564 C.2     1  UNL1        0.2460
     27 O          63.7569   91.8315   15.8349 O.2     1  UNL1       -0.2730
     28 C          67.5500   93.6069   15.7971 C.3     1  UNL1        0.0233
     29 C          66.3025   93.2174   15.0609 C.3     1  UNL1        0.0935
     30 C          67.1272   91.0492   13.8909 C.3     1  UNL1        0.0935
     31 C          68.0224   91.7944   12.9458 C.3     1  UNL1        0.0233
@<TRIPOS>BOND
     1    28    29    1
     2    29    25    1
     3    25    30    1
     4    30    31    1
     5    25    26   am
     6    26    27    2
     7    26    24    1
     8    24     1    1
     9     1     2    1
    10     2     3    1
    11     3     4   ar
    12     4     5   ar
    13     5     6    1
    14     5     7   ar
    15     7    20    1
    16    20    21    1
    17     7     8   ar
    18     8    12    1
    19    12    13   ar
    20    13    14   ar
    21    14    15   ar
    22    15    16    1
    23    15    17   ar
    24    17    18   ar
    25    18    19    1
    26     8     9   ar
    27     9    10    1
    28    10    11    2
    29    10     1   am
    30     9     3   ar
    31    18    12   ar
    32    21    22    1
    33    21    23    1
