@<TRIPOS>MOLECULE
*****
 37 40 0 0 0
SMALL
GASTEIGER

@<TRIPOS>ATOM
      1 C          63.9550   86.5777   15.5586 C.ar    1  UNL1        0.0611
      2 C          63.2102   86.1981   16.8040 C.ar    1  UNL1        0.1037
      3 N          62.7835   87.4608   17.4920 N.ar    1  UNL1       -0.2269
      4 C          63.2646   88.6209   16.6718 C.ar    1  UNL1        0.1407
      5 N          63.1370   90.1037   16.8586 N.ar    1  UNL1       -0.3374
      6 C          63.7333   91.0407   15.8505 C.ar    1  UNL1        0.0735
      7 C          64.4574   90.4949   14.6556 C.ar    1  UNL1        0.0201
      8 C          64.5851   89.0121   14.4688 C.ar    1  UNL1        0.0047
      9 C          63.9887   88.0751   15.4769 C.ar    1  UNL1        0.0386
     10 H          62.6617   90.4620   17.6429 H       1  UNL1        0.1674
     11 C          65.0538   91.4320   13.6475 C.ar    1  UNL1        0.0399
     12 C          66.3147   92.1775   13.9704 C.ar    1  UNL1        0.1034
     13 N          66.9111   93.1146   12.9623 N.ar    1  UNL1       -0.2121
     14 C          66.2465   93.3061   11.6313 C.ar    1  UNL1        0.2203
     15 N          64.9855   92.5606   11.3084 N.ar    1  UNL1       -0.2121
     16 C          64.3892   91.6236   12.3165 C.ar    1  UNL1        0.1034
     17 N          66.8429   94.2432   10.6232 N.pl3   1  UNL1       -0.2747
     18 C          67.7394   93.7123    9.5442 C.3     1  UNL1        0.1151
     19 C          66.5427   95.7111   10.6941 C.3     1  UNL1        0.1151
     20 C          64.5600   85.6269   14.5687 C.2     1  UNL1        0.2015
     21 O          65.9826   85.1800   14.7308 O.2     1  UNL1       -0.2864
     22 C          62.3963   85.5813   11.2420 C.ar    1  UNL1        0.0920
     23 C          62.1069   84.1152   11.1122 C.ar    1  UNL1        0.0204
     24 C          62.6353   83.1530   12.1345 C.ar    1  UNL1        0.0312
     25 C          63.4530   83.6569   13.2866 C.ar    1  UNL1        0.1454
     26 F          63.9813   82.6947   14.3089 F       1  UNL1       -0.2040
     27 C          63.7423   85.1230   13.4165 C.ar    1  UNL1        0.0951
     28 C          63.2139   86.0851   12.3942 C.ar    1  UNL1        0.1598
     29 F          63.5033   87.5513   12.5241 F       1  UNL1       -0.2026
     30 N          61.8679   86.5435   10.2198 N.pl3   1  UNL1       -0.2166
     31 H          61.7379   87.4903   10.4559 H       1  UNL1        0.1734
     32 S          61.5377   86.0629    8.8377 S.O2    1  UNL1        0.0540
     33 O          60.0953   86.4076    9.0625 O.2     1  UNL1       -0.1545
     34 O          62.9802   85.7183    8.6129 O.2     1  UNL1       -0.1545
     35 C          61.2077   85.5824    7.4557 C.3     1  UNL1        0.1724
     36 C          61.8238   84.0958    5.4159 C.3     1  UNL1        0.0019
     37 C          62.2317   84.8299    6.6587 C.3     1  UNL1        0.0273
@<TRIPOS>BOND
     1    36    37    1
     2    37    35    1
     3    35    32    1
     4    32    33    2
     5    32    34    2
     6    32    30    1
     7    30    22    1
     8    22    23   ar
     9    23    24   ar
    10    24    25   ar
    11    25    26    1
    12    25    27   ar
    13    27    20    1
    14    20    21    2
    15    20     1    1
    16     1     2   ar
    17     2     3   ar
    18     3     4   ar
    19     4     5   ar
    20     5     6   ar
    21     6     7   ar
    22     7    11    1
    23    11    12   ar
    24    12    13   ar
    25    13    14   ar
    26    14    17    1
    27    17    18    1
    28    17    19    1
    29    14    15   ar
    30    15    16   ar
    31     7     8   ar
    32     8     9   ar
    33    27    28   ar
    34    28    29    1
    35    28    22   ar
    36     9     1   ar
    37     9     4    1
    38    16    11   ar
    39    30    31    1
    40     5    10    1
@<TRIPOS>MOLECULE
*****
 37 40 0 0 0
SMALL
GASTEIGER

@<TRIPOS>ATOM
      1 C          64.0110   86.5706   15.5745 C.ar    1  UNL1        0.0611
      2 C          63.2139   86.2399   16.8014 C.ar    1  UNL1        0.1037
      3 N          62.7361   87.5274   17.4047 N.ar    1  UNL1       -0.2269
      4 C          63.2378   88.6539   16.5506 C.ar    1  UNL1        0.1407
      5 N          63.0789   90.1416   16.6566 N.ar    1  UNL1       -0.3374
      6 C          63.7080   91.0380   15.6316 C.ar    1  UNL1        0.0735
      7 C          64.4960   90.4466   14.5005 C.ar    1  UNL1        0.0201
      8 C          64.6548   88.9589   14.3944 C.ar    1  UNL1        0.0047
      9 C          64.0257   88.0625   15.4195 C.ar    1  UNL1        0.0386
     10 H          62.5618   90.5298   17.3990 H       1  UNL1        0.1674
     11 C          65.1251   91.3431   13.4755 C.ar    1  UNL1        0.0399
     12 C          64.4185   91.6128   12.1802 C.ar    1  UNL1        0.1034
     13 N          65.0476   92.5093   11.1551 N.ar    1  UNL1       -0.2121
     14 C          66.3833   93.1360   11.4255 C.ar    1  UNL1        0.2203
     15 N          67.0899   92.8662   12.7209 N.ar    1  UNL1       -0.2121
     16 C          66.4608   91.9698   13.7459 C.ar    1  UNL1        0.1034
     17 N          67.0125   94.0324   10.4005 N.pl3   1  UNL1       -0.2747
     18 C          66.7674   95.5115   10.4462 C.3     1  UNL1        0.1151
     19 C          67.8866   93.4497    9.3299 C.3     1  UNL1        0.1151
     20 C          64.6765   85.5828   14.6627 C.2     1  UNL1        0.2015
     21 O          66.1501   85.3285   14.7798 O.2     1  UNL1       -0.2864
     22 C          62.4469   84.8650   11.4590 C.ar    1  UNL1        0.0920
     23 C          62.2520   83.3823   11.5757 C.ar    1  UNL1        0.0204
     24 C          62.8654   82.6331   12.7213 C.ar    1  UNL1        0.0312
     25 C          63.6735   83.3665   13.7503 C.ar    1  UNL1        0.1454
     26 F          64.2868   82.6173   14.8960 F       1  UNL1       -0.2040
     27 C          63.8683   84.8492   13.6337 C.ar    1  UNL1        0.0951
     28 C          63.2550   85.5984   12.4880 C.ar    1  UNL1        0.1598
     29 F          63.4499   87.0812   12.3714 F       1  UNL1       -0.2026
     30 N          61.8336   85.6142   10.3133 N.pl3   1  UNL1       -0.2166
     31 H          61.6187   85.1433    9.4759 H       1  UNL1        0.1734
     32 S          61.5476   87.0809   10.4436 S.O2    1  UNL1        0.0540
     33 O          60.5857   86.7943   11.5584 O.2     1  UNL1       -0.1545
     34 O          62.5095   87.3675    9.3289 O.2     1  UNL1       -0.1545
     35 C          61.2617   88.5476   10.5738 C.3     1  UNL1        0.1724
     36 C          59.6623   90.4571   11.3127 C.3     1  UNL1        0.0019
     37 C          60.0642   89.0124   11.3485 C.3     1  UNL1        0.0273
@<TRIPOS>BOND
     1    36    37    1
     2    37    35    1
     3    35    32    1
     4    32    33    2
     5    32    34    2
     6    32    30    1
     7    30    22    1
     8    22    23   ar
     9    23    24   ar
    10    24    25   ar
    11    25    26    1
    12    25    27   ar
    13    27    20    1
    14    20    21    2
    15    20     1    1
    16     1     2   ar
    17     2     3   ar
    18     3     4   ar
    19     4     5   ar
    20     5     6   ar
    21     6     7   ar
    22     7    11    1
    23    11    12   ar
    24    12    13   ar
    25    13    14   ar
    26    14    17    1
    27    17    18    1
    28    17    19    1
    29    14    15   ar
    30    15    16   ar
    31     7     8   ar
    32     8     9   ar
    33    27    28   ar
    34    28    29    1
    35    28    22   ar
    36     9     1   ar
    37     9     4    1
    38    16    11   ar
    39    30    31    1
    40     5    10    1
@<TRIPOS>MOLECULE
*****
 37 40 0 0 0
SMALL
GASTEIGER

@<TRIPOS>ATOM
      1 C          61.4875   86.4330    9.2328 C.ar    1  UNL1        0.0611
      2 C          60.1464   86.3580    8.5651 C.ar    1  UNL1        0.1037
      3 N          59.3958   87.6154    8.8902 N.ar    1  UNL1       -0.2269
      4 C          60.2730   88.4674    9.7589 C.ar    1  UNL1        0.1407
      5 N          60.0617   89.8142   10.3844 N.ar    1  UNL1       -0.3374
      6 C          61.1431   90.4303   11.2216 C.ar    1  UNL1        0.0735
      7 C          62.4358   89.6995   11.4334 C.ar    1  UNL1        0.0201
      8 C          62.6472   88.3527   10.8078 C.ar    1  UNL1        0.0047
      9 C          61.5658   87.7366    9.9706 C.ar    1  UNL1        0.0386
     10 H          59.2132   90.2939   10.2454 H       1  UNL1        0.1674
     11 C          63.5172   90.3156   12.2707 C.ar    1  UNL1        0.0399
     12 C          64.2202   91.5528   11.7960 C.ar    1  UNL1        0.1034
     13 N          65.3016   92.1689   12.6333 N.ar    1  UNL1       -0.2121
     14 C          65.6800   91.5478   13.9452 C.ar    1  UNL1        0.2203
     15 N          64.9770   90.3106   14.4198 N.ar    1  UNL1       -0.2121
     16 C          63.8957   89.6946   13.5825 C.ar    1  UNL1        0.1034
     17 N          66.7614   92.1639   14.7825 N.pl3   1  UNL1       -0.2747
     18 C          66.4439   92.6847   16.1529 C.3     1  UNL1        0.1151
     19 C          68.1602   92.2591   14.2495 C.3     1  UNL1        0.1151
     20 C          62.5617   85.3878    9.1732 C.2     1  UNL1        0.2015
     21 O          63.2525   85.0955    7.8743 O.2     1  UNL1       -0.2864
     22 C          62.6760   84.2115   12.9618 C.ar    1  UNL1        0.0920
     23 C          63.7120   83.1290   12.8914 C.ar    1  UNL1        0.0204
     24 C          64.3645   82.7994   11.5816 C.ar    1  UNL1        0.0312
     25 C          63.9811   83.5523   10.3422 C.ar    1  UNL1        0.1454
     26 F          64.6336   83.2227    9.0324 F       1  UNL1       -0.2040
     27 C          62.9452   84.6348   10.4126 C.ar    1  UNL1        0.0951
     28 C          62.2927   84.9644   11.7224 C.ar    1  UNL1        0.1598
     29 F          61.2567   86.0470   11.7928 F       1  UNL1       -0.2026
     30 N          62.0235   84.5411   14.2716 N.pl3   1  UNL1       -0.2166
     31 H          61.0683   84.3463   14.4085 H       1  UNL1        0.1734
     32 S          62.8265   85.1675   15.3729 S.O2    1  UNL1        0.0540
     33 O          62.2225   84.2107   16.3576 O.2     1  UNL1       -0.1545
     34 O          63.4305   86.1244   14.3882 O.2     1  UNL1       -0.1545
     35 C          63.6295   85.7940   16.4741 C.3     1  UNL1        0.1724
     36 C          62.9998   88.2281   17.1289 C.3     1  UNL1        0.0019
     37 C          62.9789   86.7572   17.4222 C.3     1  UNL1        0.0273
@<TRIPOS>BOND
     1    36    37    1
     2    37    35    1
     3    35    32    1
     4    32    33    2
     5    32    34    2
     6    32    30    1
     7    30    22    1
     8    22    23   ar
     9    23    24   ar
    10    24    25   ar
    11    25    26    1
    12    25    27   ar
    13    27    20    1
    14    20    21    2
    15    20     1    1
    16     1     2   ar
    17     2     3   ar
    18     3     4   ar
    19     4     5   ar
    20     5     6   ar
    21     6     7   ar
    22     7    11    1
    23    11    12   ar
    24    12    13   ar
    25    13    14   ar
    26    14    17    1
    27    17    18    1
    28    17    19    1
    29    14    15   ar
    30    15    16   ar
    31     7     8   ar
    32     8     9   ar
    33    27    28   ar
    34    28    29    1
    35    28    22   ar
    36     9     1   ar
    37     9     4    1
    38    16    11   ar
    39    30    31    1
    40     5    10    1
@<TRIPOS>MOLECULE
*****
 37 40 0 0 0
SMALL
GASTEIGER

@<TRIPOS>ATOM
      1 C          63.3939   84.9015   14.5696 C.ar    1  UNL1        0.0611
      2 C          62.7482   84.2301   15.7453 C.ar    1  UNL1        0.1037
      3 N          62.4667   85.2783   16.7807 N.ar    1  UNL1       -0.2269
      4 C          62.9385   86.5976   16.2449 C.ar    1  UNL1        0.1407
      5 N          62.9203   87.9808   16.8247 N.ar    1  UNL1       -0.3374
      6 C          63.4752   89.1311   16.0381 C.ar    1  UNL1        0.0735
      7 C          64.0482   88.8982   14.6716 C.ar    1  UNL1        0.0201
      8 C          64.0664   87.5149   14.0917 C.ar    1  UNL1        0.0047
      9 C          63.5115   86.3646   14.8784 C.ar    1  UNL1        0.0386
     10 H          62.5442   88.1337   17.7216 H       1  UNL1        0.1674
     11 C          64.6031   90.0486   13.8849 C.ar    1  UNL1        0.0399
     12 C          65.8458   90.7467   14.3522 C.ar    1  UNL1        0.1034
     13 N          66.4007   91.8971   13.5656 N.ar    1  UNL1       -0.2121
     14 C          65.7128   92.3493   12.3117 C.ar    1  UNL1        0.2203
     15 N          64.4701   91.6512   11.8444 N.ar    1  UNL1       -0.2121
     16 C          63.9153   90.5008   12.6310 C.ar    1  UNL1        0.1034
     17 N          66.2677   93.4997   11.5250 N.pl3   1  UNL1       -0.2747
     18 C          66.8388   93.2671   10.1577 C.3     1  UNL1        0.1151
     19 C          66.2514   94.8826   12.1057 C.3     1  UNL1        0.1151
     20 C          63.8432   84.2279   13.3069 C.2     1  UNL1        0.2015
     21 O          64.8673   83.1335   13.3640 O.2     1  UNL1       -0.2864
     22 C          61.4914   85.9664   10.6240 C.ar    1  UNL1        0.0920
     23 C          62.1184   85.4908    9.3470 C.ar    1  UNL1        0.0204
     24 C          63.3203   84.5944    9.3899 C.ar    1  UNL1        0.0312
     25 C          63.8952   84.1734   10.7098 C.ar    1  UNL1        0.1454
     26 F          65.0971   83.2769   10.7528 F       1  UNL1       -0.2040
     27 C          63.2682   84.6489   11.9869 C.ar    1  UNL1        0.0951
     28 C          62.0664   85.5454   11.9439 C.ar    1  UNL1        0.1598
     29 F          61.4395   86.0209   13.2210 F       1  UNL1       -0.2026
     30 N          60.2896   86.8629   10.5811 N.pl3   1  UNL1       -0.2166
     31 H          59.5644   86.7457   11.2366 H       1  UNL1        0.1734
     32 S          60.1926   87.9378    9.5394 S.O2    1  UNL1        0.0540
     33 O          61.1087   88.8059   10.3500 O.2     1  UNL1       -0.1545
     34 O          59.2764   87.0696    8.7289 O.2     1  UNL1       -0.1545
     35 C          60.0955   89.0126    8.4977 C.3     1  UNL1        0.1724
     36 C          59.2706   89.8220    6.1707 C.3     1  UNL1        0.0019
     37 C          59.3336   88.7620    7.2301 C.3     1  UNL1        0.0273
@<TRIPOS>BOND
     1    36    37    1
     2    37    35    1
     3    35    32    1
     4    32    33    2
     5    32    34    2
     6    32    30    1
     7    30    22    1
     8    22    23   ar
     9    23    24   ar
    10    24    25   ar
    11    25    26    1
    12    25    27   ar
    13    27    20    1
    14    20    21    2
    15    20     1    1
    16     1     2   ar
    17     2     3   ar
    18     3     4   ar
    19     4     5   ar
    20     5     6   ar
    21     6     7   ar
    22     7    11    1
    23    11    12   ar
    24    12    13   ar
    25    13    14   ar
    26    14    17    1
    27    17    18    1
    28    17    19    1
    29    14    15   ar
    30    15    16   ar
    31     7     8   ar
    32     8     9   ar
    33    27    28   ar
    34    28    29    1
    35    28    22   ar
    36     9     1   ar
    37     9     4    1
    38    16    11   ar
    39    30    31    1
    40     5    10    1
@<TRIPOS>MOLECULE
*****
 37 40 0 0 0
SMALL
GASTEIGER

@<TRIPOS>ATOM
      1 C          62.7903   90.2138   12.2497 C.ar    1  UNL1        0.0611
      2 C          62.4404   91.3098   11.2874 C.ar    1  UNL1        0.1037
      3 N          61.9993   90.6747   10.0020 N.ar    1  UNL1       -0.2269
      4 C          62.0768   89.1862   10.1700 C.ar    1  UNL1        0.1407
      5 N          61.7653   88.0533    9.2375 N.ar    1  UNL1       -0.3374
      6 C          61.9427   86.6356    9.6941 C.ar    1  UNL1        0.0735
      7 C          62.4316   86.3508   11.0833 C.ar    1  UNL1        0.0201
      8 C          62.7430   87.4836   12.0158 C.ar    1  UNL1        0.0047
      9 C          62.5657   88.9013   11.5592 C.ar    1  UNL1        0.0386
     10 H          61.4444   88.2403    8.3257 H       1  UNL1        0.1674
     11 C          62.6090   84.9329   11.5400 C.ar    1  UNL1        0.0399
     12 C          63.0663   83.8842   10.5699 C.ar    1  UNL1        0.1034
     13 N          63.2437   82.4664   11.0266 N.ar    1  UNL1       -0.2121
     14 C          62.9637   82.0974   12.4533 C.ar    1  UNL1        0.2203
     15 N          62.5064   83.1462   13.4233 N.ar    1  UNL1       -0.2121
     16 C          62.3290   84.5640   12.9667 C.ar    1  UNL1        0.1034
     17 N          63.1411   80.6797   12.9099 N.pl3   1  UNL1       -0.2747
     18 C          63.7634   80.3940   14.2445 C.3     1  UNL1        0.1151
     19 C          62.6961   79.5478   12.0321 C.3     1  UNL1        0.1151
     20 C          63.2792   90.3979   13.6558 C.2     1  UNL1        0.2015
     21 O          62.5986   89.6843   14.7860 O.2     1  UNL1       -0.2864
     22 C          66.3988   92.7799   13.0687 C.ar    1  UNL1        0.0920
     23 C          66.7880   93.0911   14.4835 C.ar    1  UNL1        0.0204
     24 C          66.0077   92.5046   15.6224 C.ar    1  UNL1        0.0312
     25 C          64.8381   91.6068   15.3466 C.ar    1  UNL1        0.1454
     26 F          64.0578   91.0203   16.4854 F       1  UNL1       -0.2040
     27 C          64.4489   91.2957   13.9318 C.ar    1  UNL1        0.0951
     28 C          65.2292   91.8822   12.7929 C.ar    1  UNL1        0.1598
     29 F          64.8399   91.5709   11.3781 F       1  UNL1       -0.2026
     30 N          67.1791   93.3664   11.9298 N.pl3   1  UNL1       -0.2166
     31 H          68.0980   93.0603   11.7534 H       1  UNL1        0.1734
     32 S          66.5594   94.4194   11.0597 S.O2    1  UNL1        0.0540
     33 O          66.9657   93.6493    9.8383 O.2     1  UNL1       -0.1545
     34 O          66.1530   95.1895   12.2811 O.2     1  UNL1       -0.1545
     35 C          65.9396   95.4725   10.1897 C.3     1  UNL1        0.1724
     36 C          67.2503   96.8557    8.4236 C.3     1  UNL1        0.0019
     37 C          66.7239   96.6962    9.8191 C.3     1  UNL1        0.0273
@<TRIPOS>BOND
     1    36    37    1
     2    37    35    1
     3    35    32    1
     4    32    33    2
     5    32    34    2
     6    32    30    1
     7    30    22    1
     8    22    23   ar
     9    23    24   ar
    10    24    25   ar
    11    25    26    1
    12    25    27   ar
    13    27    20    1
    14    20    21    2
    15    20     1    1
    16     1     2   ar
    17     2     3   ar
    18     3     4   ar
    19     4     5   ar
    20     5     6   ar
    21     6     7   ar
    22     7    11    1
    23    11    12   ar
    24    12    13   ar
    25    13    14   ar
    26    14    17    1
    27    17    18    1
    28    17    19    1
    29    14    15   ar
    30    15    16   ar
    31     7     8   ar
    32     8     9   ar
    33    27    28   ar
    34    28    29    1
    35    28    22   ar
    36     9     1   ar
    37     9     4    1
    38    16    11   ar
    39    30    31    1
    40     5    10    1
@<TRIPOS>MOLECULE
*****
 37 40 0 0 0
SMALL
GASTEIGER

@<TRIPOS>ATOM
      1 C          61.4170   87.4875   10.5927 C.ar    1  UNL1        0.0611
      2 C          60.4780   87.5596    9.4252 C.ar    1  UNL1        0.1037
      3 N          60.5871   88.9307    8.8266 N.ar    1  UNL1       -0.2269
      4 C          61.5936   89.7060    9.6242 C.ar    1  UNL1        0.1407
      5 N          62.1092   91.1088    9.4976 N.ar    1  UNL1       -0.3374
      6 C          63.1377   91.6197   10.4625 C.ar    1  UNL1        0.0735
      7 C          63.6506   90.7278   11.5540 C.ar    1  UNL1        0.0201
      8 C          63.1350   89.3249   11.6806 C.ar    1  UNL1        0.0047
      9 C          62.1065   88.8140   10.7157 C.ar    1  UNL1        0.0386
     10 H          61.7726   91.6942    8.7812 H       1  UNL1        0.1674
     11 C          64.6792   91.2387   12.5189 C.ar    1  UNL1        0.0399
     12 C          65.6328   92.3170   12.0973 C.ar    1  UNL1        0.1034
     13 N          66.6614   92.8280   13.0622 N.ar    1  UNL1       -0.2121
     14 C          66.7363   92.2606   14.4487 C.ar    1  UNL1        0.2203
     15 N          65.7826   91.1823   14.8703 N.ar    1  UNL1       -0.2121
     16 C          64.7541   90.6714   13.9054 C.ar    1  UNL1        0.1034
     17 N          67.7648   92.7715   15.4136 N.pl3   1  UNL1       -0.2747
     18 C          68.1323   94.2258   15.4177 C.3     1  UNL1        0.1151
     19 C          68.4259   91.8282   16.3744 C.3     1  UNL1        0.1151
     20 C          61.6293   86.2978   11.4812 C.2     1  UNL1        0.2015
     21 O          60.9683   86.2388   12.8263 O.2     1  UNL1       -0.2864
     22 C          63.7682   82.9552   11.5311 C.ar    1  UNL1        0.0920
     23 C          64.2495   82.9055   10.1113 C.ar    1  UNL1        0.0204
     24 C          63.8575   83.9865    9.1481 C.ar    1  UNL1        0.0312
     25 C          62.9841   85.1172    9.6047 C.ar    1  UNL1        0.1454
     26 F          62.5920   86.1983    8.6416 F       1  UNL1       -0.2040
     27 C          62.5028   85.1670   11.0245 C.ar    1  UNL1        0.0951
     28 C          62.8948   84.0860   11.9877 C.ar    1  UNL1        0.1598
     29 F          62.4135   84.1358   13.4075 F       1  UNL1       -0.2026
     30 N          64.1603   81.8742   12.4942 N.pl3   1  UNL1       -0.2166
     31 H          65.1113   81.7067   12.6858 H       1  UNL1        0.1734
     32 S          63.1033   81.0483   13.1655 S.O2    1  UNL1        0.0540
     33 O          62.6940   80.4903   11.8347 O.2     1  UNL1       -0.1545
     34 O          63.5126   81.6062   14.4964 O.2     1  UNL1       -0.1545
     35 C          62.0464   80.2224   13.8369 C.3     1  UNL1        0.1724
     36 C          59.4883   80.0226   14.2450 C.3     1  UNL1        0.0019
     37 C          60.7402   80.8486   14.2266 C.3     1  UNL1        0.0273
@<TRIPOS>BOND
     1    36    37    1
     2    37    35    1
     3    35    32    1
     4    32    33    2
     5    32    34    2
     6    32    30    1
     7    30    22    1
     8    22    23   ar
     9    23    24   ar
    10    24    25   ar
    11    25    26    1
    12    25    27   ar
    13    27    20    1
    14    20    21    2
    15    20     1    1
    16     1     2   ar
    17     2     3   ar
    18     3     4   ar
    19     4     5   ar
    20     5     6   ar
    21     6     7   ar
    22     7    11    1
    23    11    12   ar
    24    12    13   ar
    25    13    14   ar
    26    14    17    1
    27    17    18    1
    28    17    19    1
    29    14    15   ar
    30    15    16   ar
    31     7     8   ar
    32     8     9   ar
    33    27    28   ar
    34    28    29    1
    35    28    22   ar
    36     9     1   ar
    37     9     4    1
    38    16    11   ar
    39    30    31    1
    40     5    10    1
