@<TRIPOS>MOLECULE
*****
 26 28 0 0 0
SMALL
GASTEIGER

@<TRIPOS>ATOM
      1 C          63.2522   89.6981   16.7285 C.3     1  UNL1        0.0522
      2 C          63.6575   90.1545   15.3583 C.ar    1  UNL1        0.0625
      3 C          64.6905   91.2307   15.2013 C.ar    1  UNL1        0.0522
      4 C          65.0958   91.6871   13.8311 C.ar    1  UNL1        0.1482
      5 C          64.4681   91.0674   12.6180 C.ar    1  UNL1        0.0612
      6 C          63.4351   89.9912   12.7750 C.ar    1  UNL1        0.1374
      7 N          63.0298   89.5348   14.1451 N.ar    1  UNL1       -0.2449
      8 C          62.8073   89.3714   11.5617 C.2     1  UNL1        0.2684
      9 O          62.7267   90.1466   10.2801 O.2     1  UNL1       -0.2681
     10 N          62.2602   87.9764   11.6302 N.am    1  UNL1       -0.2646
     11 H          62.3132   87.4676   12.4714 H       1  UNL1        0.1566
     12 C          61.6324   87.3566   10.4170 C.ar    1  UNL1        0.1346
     13 C          62.4203   86.4020    9.5697 C.ar    1  UNL1        0.0368
     14 C          61.7925   85.7822    8.3566 C.ar    1  UNL1        0.0341
     15 C          60.3769   86.1171    7.9907 C.ar    1  UNL1        0.1593
     16 F          59.7491   85.4973    6.7775 F       1  UNL1       -0.2025
     17 C          59.5891   87.0718    8.8379 C.ar    1  UNL1        0.1298
     18 N          60.2168   87.6916   10.0511 N.ar    1  UNL1       -0.2267
     19 O          66.1289   92.7633   13.6742 O.3     1  UNL1       -0.4518
     20 C          66.4931   93.2596   12.3063 C.ar    1  UNL1        0.1652
     21 C          66.1316   94.6559   11.8941 C.ar    1  UNL1        0.1363
     22 N          66.4958   95.1521   10.5262 N.ar    1  UNL1       -0.2382
     23 C          67.2215   94.2520    9.5705 C.ar    1  UNL1        0.1104
     24 C          67.5829   92.8558    9.9826 C.ar    1  UNL1        0.0798
     25 CL         68.3086   91.9557    9.0269 Cl      1  UNL1       -0.0805
     26 C          67.2187   92.3596   11.3505 C.ar    1  UNL1        0.0521
@<TRIPOS>BOND
     1     1     2    1
     2     2     3   ar
     3     3     4   ar
     4     4    19    1
     5    19    20    1
     6    20    21   ar
     7    21    22   ar
     8    22    23   ar
     9    23    24   ar
    10    24    25    1
    11    24    26   ar
    12     4     5   ar
    13     5     6   ar
    14     6     8    1
    15     8     9    2
    16     8    10   am
    17    10    12    1
    18    12    13   ar
    19    13    14   ar
    20    14    15   ar
    21    15    16    1
    22    15    17   ar
    23    17    18   ar
    24     6     7   ar
    25     7     2   ar
    26    26    20   ar
    27    18    12   ar
    28    10    11    1
@<TRIPOS>MOLECULE
*****
 26 28 0 0 0
SMALL
GASTEIGER

@<TRIPOS>ATOM
      1 C          62.4178   90.5803   10.0984 C.3     1  UNL1        0.0522
      2 C          62.9167   90.0813   11.4221 C.ar    1  UNL1        0.0625
      3 C          63.3817   91.0552   12.4639 C.ar    1  UNL1        0.0522
      4 C          63.8806   90.5562   13.7875 C.ar    1  UNL1        0.1482
      5 C          63.9144   89.0833   14.0695 C.ar    1  UNL1        0.0612
      6 C          63.4494   88.1095   13.0277 C.ar    1  UNL1        0.1374
      7 N          62.9505   88.6085   11.7040 N.ar    1  UNL1       -0.2449
      8 C          63.4832   86.6365   13.3096 C.2     1  UNL1        0.2684
      9 O          64.4223   86.0925   14.3450 O.2     1  UNL1       -0.2681
     10 N          62.5779   85.7077   12.5561 N.am    1  UNL1       -0.2646
     11 H          61.9616   86.0648   11.8766 H       1  UNL1        0.1566
     12 C          62.6117   84.2348   12.8380 C.ar    1  UNL1        0.1346
     13 C          62.9233   83.2671   11.7351 C.ar    1  UNL1        0.0368
     14 C          62.9571   81.7942   12.0171 C.ar    1  UNL1        0.0341
     15 C          62.6793   81.2891   13.4019 C.ar    1  UNL1        0.1593
     16 F          62.7132   79.8162   13.6838 F       1  UNL1       -0.2025
     17 C          62.3678   82.2568   14.5048 C.ar    1  UNL1        0.1298
     18 N          62.3340   83.7297   14.2228 N.ar    1  UNL1       -0.2267
     19 O          64.3457   91.5301   14.8293 O.3     1  UNL1       -0.4518
     20 C          65.7927   91.9187   14.9000 C.ar    1  UNL1        0.1652
     21 C          66.3170   92.6424   16.1047 C.ar    1  UNL1        0.1363
     22 N          67.7641   93.0310   16.1754 N.ar    1  UNL1       -0.2382
     23 C          68.6869   92.6958   15.0412 C.ar    1  UNL1        0.1104
     24 C          68.1626   91.9721   13.8365 C.ar    1  UNL1        0.0798
     25 CL         69.0854   91.6369   12.7024 Cl      1  UNL1       -0.0805
     26 C          66.7155   91.5835   13.7659 C.ar    1  UNL1        0.0521
@<TRIPOS>BOND
     1     1     2    1
     2     2     3   ar
     3     3     4   ar
     4     4    19    1
     5    19    20    1
     6    20    21   ar
     7    21    22   ar
     8    22    23   ar
     9    23    24   ar
    10    24    25    1
    11    24    26   ar
    12     4     5   ar
    13     5     6   ar
    14     6     8    1
    15     8     9    2
    16     8    10   am
    17    10    12    1
    18    12    13   ar
    19    13    14   ar
    20    14    15   ar
    21    15    16    1
    22    15    17   ar
    23    17    18   ar
    24     6     7   ar
    25     7     2   ar
    26    26    20   ar
    27    18    12   ar
    28    10    11    1
@<TRIPOS>MOLECULE
*****
 26 28 0 0 0
SMALL
GASTEIGER

@<TRIPOS>ATOM
      1 C          59.0803   90.2044   11.5783 C.3     1  UNL1        0.0522
      2 C          60.3661   89.4358   11.6544 C.ar    1  UNL1        0.0625
      3 C          60.5077   88.1362   10.9190 C.ar    1  UNL1        0.0522
      4 C          61.7936   87.3676   10.9952 C.ar    1  UNL1        0.1482
      5 C          62.9378   87.8986   11.8067 C.ar    1  UNL1        0.0612
      6 C          62.7962   89.1982   12.5421 C.ar    1  UNL1        0.1374
      7 N          61.5104   89.9668   12.4660 N.ar    1  UNL1       -0.2449
      8 C          63.9405   89.7293   13.3537 C.2     1  UNL1        0.2684
      9 O          64.5939   88.8604   14.3872 O.2     1  UNL1       -0.2681
     10 N          64.4314   91.1292   13.1318 N.am    1  UNL1       -0.2646
     11 H          64.0025   91.6995   12.4535 H       1  UNL1        0.1566
     12 C          65.5756   91.6603   13.9434 C.ar    1  UNL1        0.1346
     13 C          66.9538   91.7107   13.3535 C.ar    1  UNL1        0.0368
     14 C          68.0980   92.2418   14.1651 C.ar    1  UNL1        0.0341
     15 C          67.8640   92.7225   15.5666 C.ar    1  UNL1        0.1593
     16 F          69.0083   93.2536   16.3782 F       1  UNL1       -0.2025
     17 C          66.4859   92.6721   16.1565 C.ar    1  UNL1        0.1298
     18 N          65.3417   92.1410   15.3449 N.ar    1  UNL1       -0.2267
     19 O          61.9352   86.0679   10.2597 O.3     1  UNL1       -0.4518
     20 C          62.7132   84.9408   10.8716 C.ar    1  UNL1        0.1652
     21 C          63.6585   84.1373   10.0284 C.ar    1  UNL1        0.1363
     22 N          64.4365   83.0103   10.6402 N.ar    1  UNL1       -0.2382
     23 C          64.2692   82.6866   12.0954 C.ar    1  UNL1        0.1104
     24 C          63.3240   83.4900   12.9386 C.ar    1  UNL1        0.0798
     25 CL         63.1567   83.1664   14.3937 Cl      1  UNL1       -0.0805
     26 C          62.5459   84.6171   12.3267 C.ar    1  UNL1        0.0521
@<TRIPOS>BOND
     1     1     2    1
     2     2     3   ar
     3     3     4   ar
     4     4    19    1
     5    19    20    1
     6    20    21   ar
     7    21    22   ar
     8    22    23   ar
     9    23    24   ar
    10    24    25    1
    11    24    26   ar
    12     4     5   ar
    13     5     6   ar
    14     6     8    1
    15     8     9    2
    16     8    10   am
    17    10    12    1
    18    12    13   ar
    19    13    14   ar
    20    14    15   ar
    21    15    16    1
    22    15    17   ar
    23    17    18   ar
    24     6     7   ar
    25     7     2   ar
    26    26    20   ar
    27    18    12   ar
    28    10    11    1
@<TRIPOS>MOLECULE
*****
 26 28 0 0 0
SMALL
GASTEIGER

@<TRIPOS>ATOM
      1 C          60.1413   89.7252    8.3308 C.3     1  UNL1        0.0522
      2 C          60.9777   89.3660    9.5231 C.ar    1  UNL1        0.0625
      3 C          61.5698   90.4475   10.3772 C.ar    1  UNL1        0.0522
      4 C          62.4061   90.0883   11.5694 C.ar    1  UNL1        0.1482
      5 C          62.6503   88.6475   11.9076 C.ar    1  UNL1        0.0612
      6 C          62.0581   87.5659   11.0535 C.ar    1  UNL1        0.1374
      7 N          61.2218   87.9252    9.8613 N.ar    1  UNL1       -0.2449
      8 C          62.3023   86.1250   11.3917 C.2     1  UNL1        0.2684
      9 O          61.9771   85.0546   10.3924 O.2     1  UNL1       -0.2681
     10 N          62.8715   85.7546   12.7291 N.am    1  UNL1       -0.2646
     11 H          63.0849   86.4571   13.3850 H       1  UNL1        0.1566
     12 C          63.1157   84.3137   13.0673 C.ar    1  UNL1        0.1346
     13 C          62.3275   83.6560   14.1609 C.ar    1  UNL1        0.0368
     14 C          62.5716   82.2152   14.4991 C.ar    1  UNL1        0.0341
     15 C          63.6040   81.4320   13.7435 C.ar    1  UNL1        0.1593
     16 F          63.8482   79.9912   14.0817 F       1  UNL1       -0.2025
     17 C          64.3923   82.0897   12.6499 C.ar    1  UNL1        0.1298
     18 N          64.1481   83.5305   12.3117 N.ar    1  UNL1       -0.2267
     19 O          62.9983   91.1700   12.4235 O.3     1  UNL1       -0.4518
     20 C          64.3975   91.6461   12.1676 C.ar    1  UNL1        0.1652
     21 C          64.7797   92.1558   10.8096 C.ar    1  UNL1        0.1363
     22 N          66.1790   92.6319   10.5537 N.ar    1  UNL1       -0.2382
     23 C          67.1960   92.5983   11.6558 C.ar    1  UNL1        0.1104
     24 C          66.8138   92.0885   13.0137 C.ar    1  UNL1        0.0798
     25 CL         67.8308   92.0549   14.1159 Cl      1  UNL1       -0.0805
     26 C          65.4146   91.6124   13.2697 C.ar    1  UNL1        0.0521
@<TRIPOS>BOND
     1     1     2    1
     2     2     3   ar
     3     3     4   ar
     4     4    19    1
     5    19    20    1
     6    20    21   ar
     7    21    22   ar
     8    22    23   ar
     9    23    24   ar
    10    24    25    1
    11    24    26   ar
    12     4     5   ar
    13     5     6   ar
    14     6     8    1
    15     8     9    2
    16     8    10   am
    17    10    12    1
    18    12    13   ar
    19    13    14   ar
    20    14    15   ar
    21    15    16    1
    22    15    17   ar
    23    17    18   ar
    24     6     7   ar
    25     7     2   ar
    26    26    20   ar
    27    18    12   ar
    28    10    11    1
@<TRIPOS>MOLECULE
*****
 26 28 0 0 0
SMALL
GASTEIGER

@<TRIPOS>ATOM
      1 C          59.2978   88.4391    7.4531 C.3     1  UNL1        0.0522
      2 C          60.2802   88.4160    8.5864 C.ar    1  UNL1        0.0625
      3 C          60.7282   89.7012    9.2169 C.ar    1  UNL1        0.0522
      4 C          61.7107   89.6781   10.3501 C.ar    1  UNL1        0.1482
      5 C          62.2451   88.3698   10.8529 C.ar    1  UNL1        0.0612
      6 C          61.7971   87.0846   10.2223 C.ar    1  UNL1        0.1374
      7 N          60.8147   87.1077    9.0891 N.ar    1  UNL1       -0.2449
      8 C          62.3316   85.7763   10.7250 C.2     1  UNL1        0.2684
      9 O          63.0770   84.8641    9.7964 O.2     1  UNL1       -0.2681
     10 N          62.1207   85.3802   12.1563 N.am    1  UNL1       -0.2646
     11 H          61.6315   85.9789   12.7658 H       1  UNL1        0.1566
     12 C          62.6551   84.0718   12.6590 C.ar    1  UNL1        0.1346
     13 C          62.4026   82.8117   11.8857 C.ar    1  UNL1        0.0368
     14 C          62.9371   81.5034   12.3884 C.ar    1  UNL1        0.0341
     15 C          63.7240   81.4553   13.6645 C.ar    1  UNL1        0.1593
     16 F          64.2585   80.1470   14.1672 F       1  UNL1       -0.2025
     17 C          63.9766   82.7155   14.4378 C.ar    1  UNL1        0.1298
     18 N          63.4421   84.0238   13.9351 N.ar    1  UNL1       -0.2267
     19 O          62.1586   90.9633   10.9807 O.3     1  UNL1       -0.4518
     20 C          63.1464   90.9406   12.1093 C.ar    1  UNL1        0.1652
     21 C          64.4737   91.6229   11.9581 C.ar    1  UNL1        0.1363
     22 N          65.4615   91.6002   13.0868 N.ar    1  UNL1       -0.2382
     23 C          65.1219   90.8953   14.3666 C.ar    1  UNL1        0.1104
     24 C          63.7947   90.2131   14.5177 C.ar    1  UNL1        0.0798
     25 CL         63.4551   89.5081   15.7975 Cl      1  UNL1       -0.0805
     26 C          62.8069   90.2358   13.3891 C.ar    1  UNL1        0.0521
@<TRIPOS>BOND
     1     1     2    1
     2     2     3   ar
     3     3     4   ar
     4     4    19    1
     5    19    20    1
     6    20    21   ar
     7    21    22   ar
     8    22    23   ar
     9    23    24   ar
    10    24    25    1
    11    24    26   ar
    12     4     5   ar
    13     5     6   ar
    14     6     8    1
    15     8     9    2
    16     8    10   am
    17    10    12    1
    18    12    13   ar
    19    13    14   ar
    20    14    15   ar
    21    15    16    1
    22    15    17   ar
    23    17    18   ar
    24     6     7   ar
    25     7     2   ar
    26    26    20   ar
    27    18    12   ar
    28    10    11    1
@<TRIPOS>MOLECULE
*****
 26 28 0 0 0
SMALL
GASTEIGER

@<TRIPOS>ATOM
      1 C          63.6830   81.6853   13.1009 C.3     1  UNL1        0.0522
      2 C          63.4254   83.0916   12.6471 C.ar    1  UNL1        0.0625
      3 C          62.8362   83.3461   11.2914 C.ar    1  UNL1        0.0522
      4 C          62.5786   84.7524   10.8375 C.ar    1  UNL1        0.1482
      5 C          62.9103   85.9042   11.7394 C.ar    1  UNL1        0.0612
      6 C          63.4995   85.6496   13.0951 C.ar    1  UNL1        0.1374
      7 N          63.7571   84.2433   13.5489 N.ar    1  UNL1       -0.2449
      8 C          63.8312   86.8014   13.9970 C.2     1  UNL1        0.2684
      9 O          64.4253   86.5471   15.3507 O.2     1  UNL1       -0.2681
     10 N          63.5689   88.2075   13.5453 N.am    1  UNL1       -0.2646
     11 H          63.1790   88.3744   12.6568 H       1  UNL1        0.1566
     12 C          63.9006   89.3593   14.4473 C.ar    1  UNL1        0.1346
     13 C          65.0689   90.2459   14.1327 C.ar    1  UNL1        0.0368
     14 C          65.4006   91.3976   15.0347 C.ar    1  UNL1        0.0341
     15 C          64.5639   91.6627   16.2511 C.ar    1  UNL1        0.1593
     16 F          64.8956   92.8145   17.1531 F       1  UNL1       -0.2025
     17 C          63.3956   90.7761   16.5656 C.ar    1  UNL1        0.1298
     18 N          63.0640   89.6244   15.6637 N.ar    1  UNL1       -0.2267
     19 O          61.9893   85.0070    9.4818 O.3     1  UNL1       -0.4518
     20 C          61.3341   86.3230    9.1838 C.ar    1  UNL1        0.1652
     21 C          60.1362   86.3774    8.2826 C.ar    1  UNL1        0.1363
     22 N          59.4810   87.6934    7.9847 N.ar    1  UNL1       -0.2382
     23 C          60.0237   88.9550    8.5880 C.ar    1  UNL1        0.1104
     24 C          61.2215   88.9006    9.4891 C.ar    1  UNL1        0.0798
     25 CL         61.7643   90.1622   10.0924 Cl      1  UNL1       -0.0805
     26 C          61.8768   87.5846    9.7870 C.ar    1  UNL1        0.0521
@<TRIPOS>BOND
     1     1     2    1
     2     2     3   ar
     3     3     4   ar
     4     4    19    1
     5    19    20    1
     6    20    21   ar
     7    21    22   ar
     8    22    23   ar
     9    23    24   ar
    10    24    25    1
    11    24    26   ar
    12     4     5   ar
    13     5     6   ar
    14     6     8    1
    15     8     9    2
    16     8    10   am
    17    10    12    1
    18    12    13   ar
    19    13    14   ar
    20    14    15   ar
    21    15    16    1
    22    15    17   ar
    23    17    18   ar
    24     6     7   ar
    25     7     2   ar
    26    26    20   ar
    27    18    12   ar
    28    10    11    1
@<TRIPOS>MOLECULE
*****
 26 28 0 0 0
SMALL
GASTEIGER

@<TRIPOS>ATOM
      1 C          61.9600   85.2581    8.0104 C.3     1  UNL1        0.0522
      2 C          61.3540   86.5835    8.3653 C.ar    1  UNL1        0.0625
      3 C          60.2629   87.1615    7.5137 C.ar    1  UNL1        0.0522
      4 C          59.6569   88.4869    7.8687 C.ar    1  UNL1        0.1482
      5 C          60.1420   89.2344    9.0752 C.ar    1  UNL1        0.0612
      6 C          61.2332   88.6564    9.9268 C.ar    1  UNL1        0.1374
      7 N          61.8392   87.3310    9.5719 N.ar    1  UNL1       -0.2449
      8 C          61.7184   89.4039   11.1335 C.2     1  UNL1        0.2684
      9 O          60.8988   90.5247   11.7011 O.2     1  UNL1       -0.2681
     10 N          63.0231   89.0306   11.7725 N.am    1  UNL1       -0.2646
     11 H          63.5610   88.2950   11.3999 H       1  UNL1        0.1566
     12 C          63.5083   89.7781   12.9791 C.ar    1  UNL1        0.1346
     13 C          64.4883   90.9026   12.8208 C.ar    1  UNL1        0.0368
     14 C          64.9735   91.6500   14.0274 C.ar    1  UNL1        0.0341
     15 C          64.4787   91.2729   15.3923 C.ar    1  UNL1        0.1593
     16 F          64.9639   92.0204   16.5989 F       1  UNL1       -0.2025
     17 C          63.4987   90.1484   15.5506 C.ar    1  UNL1        0.1298
     18 N          63.0135   89.4010   14.3440 N.ar    1  UNL1       -0.2267
     19 O          58.5657   89.0649    7.0170 O.3     1  UNL1       -0.4518
     20 C          58.8852   90.1278    6.0079 C.ar    1  UNL1        0.1652
     21 C          57.8023   91.0378    5.5087 C.ar    1  UNL1        0.1363
     22 N          58.1219   92.1007    4.4996 N.ar    1  UNL1       -0.2382
     23 C          59.5244   92.2535    3.9898 C.ar    1  UNL1        0.1104
     24 C          60.6072   91.3435    4.4891 C.ar    1  UNL1        0.0798
     25 CL         62.0097   91.4963    3.9793 Cl      1  UNL1       -0.0805
     26 C          60.2876   90.2806    5.4981 C.ar    1  UNL1        0.0521
@<TRIPOS>BOND
     1     1     2    1
     2     2     3   ar
     3     3     4   ar
     4     4    19    1
     5    19    20    1
     6    20    21   ar
     7    21    22   ar
     8    22    23   ar
     9    23    24   ar
    10    24    25    1
    11    24    26   ar
    12     4     5   ar
    13     5     6   ar
    14     6     8    1
    15     8     9    2
    16     8    10   am
    17    10    12    1
    18    12    13   ar
    19    13    14   ar
    20    14    15   ar
    21    15    16    1
    22    15    17   ar
    23    17    18   ar
    24     6     7   ar
    25     7     2   ar
    26    26    20   ar
    27    18    12   ar
    28    10    11    1
@<TRIPOS>MOLECULE
*****
 26 28 0 0 0
SMALL
GASTEIGER

@<TRIPOS>ATOM
      1 C          59.5391   89.8894   11.1560 C.3     1  UNL1        0.0522
      2 C          60.8556   89.3572   11.6392 C.ar    1  UNL1        0.0625
      3 C          61.2547   87.9457   11.3255 C.ar    1  UNL1        0.0522
      4 C          62.5713   87.4136   11.8088 C.ar    1  UNL1        0.1482
      5 C          63.4887   88.2928   12.6057 C.ar    1  UNL1        0.0612
      6 C          63.0896   89.7043   12.9194 C.ar    1  UNL1        0.1374
      7 N          61.7730   90.2365   12.4362 N.ar    1  UNL1       -0.2449
      8 C          64.0070   90.5837   13.7164 C.2     1  UNL1        0.2684
      9 O          63.4932   91.2981   14.9312 O.2     1  UNL1       -0.2681
     10 N          65.4381   90.7486   13.2987 N.am    1  UNL1       -0.2646
     11 H          65.7753   90.2797   12.5014 H       1  UNL1        0.1566
     12 C          66.3556   91.6279   14.0957 C.ar    1  UNL1        0.1346
     13 C          65.9122   92.1662   15.4237 C.ar    1  UNL1        0.0368
     14 C          66.8296   93.0455   16.2206 C.ar    1  UNL1        0.0341
     15 C          68.1904   93.3865   15.6895 C.ar    1  UNL1        0.1593
     16 F          69.1078   94.2659   16.4865 F       1  UNL1       -0.2025
     17 C          68.6337   92.8483   14.3615 C.ar    1  UNL1        0.1298
     18 N          67.7163   91.9690   13.5646 N.ar    1  UNL1       -0.2267
     19 O          62.9704   86.0020   11.4950 O.3     1  UNL1       -0.4518
     20 C          62.7631   84.9201   12.5131 C.ar    1  UNL1        0.1652
     21 C          62.4147   85.2780   13.9275 C.ar    1  UNL1        0.1363
     22 N          62.2074   84.1961   14.9456 N.ar    1  UNL1       -0.2382
     23 C          62.3485   82.7563   14.5493 C.ar    1  UNL1        0.1104
     24 C          62.6968   82.3984   13.1349 C.ar    1  UNL1        0.0798
     25 CL         62.8379   80.9586   12.7385 Cl      1  UNL1       -0.0805
     26 C          62.9041   83.4803   12.1168 C.ar    1  UNL1        0.0521
@<TRIPOS>BOND
     1     1     2    1
     2     2     3   ar
     3     3     4   ar
     4     4    19    1
     5    19    20    1
     6    20    21   ar
     7    21    22   ar
     8    22    23   ar
     9    23    24   ar
    10    24    25    1
    11    24    26   ar
    12     4     5   ar
    13     5     6   ar
    14     6     8    1
    15     8     9    2
    16     8    10   am
    17    10    12    1
    18    12    13   ar
    19    13    14   ar
    20    14    15   ar
    21    15    16    1
    22    15    17   ar
    23    17    18   ar
    24     6     7   ar
    25     7     2   ar
    26    26    20   ar
    27    18    12   ar
    28    10    11    1
@<TRIPOS>MOLECULE
*****
 26 28 0 0 0
SMALL
GASTEIGER

@<TRIPOS>ATOM
      1 C          58.3956   88.9765   13.3154 C.3     1  UNL1        0.0522
      2 C          59.5082   89.0637   12.3131 C.ar    1  UNL1        0.0625
      3 C          59.3579   88.4179   10.9676 C.ar    1  UNL1        0.0522
      4 C          60.4704   88.5051    9.9653 C.ar    1  UNL1        0.1482
      5 C          61.7333   89.2381   10.3085 C.ar    1  UNL1        0.0612
      6 C          61.8837   89.8838   11.6540 C.ar    1  UNL1        0.1374
      7 N          60.7711   89.7966   12.6563 N.ar    1  UNL1       -0.2449
      8 C          63.1466   90.6169   11.9972 C.2     1  UNL1        0.2684
      9 O          63.9210   91.3206   10.9224 O.2     1  UNL1       -0.2681
     10 N          63.6351   90.6461   13.4151 N.am    1  UNL1       -0.2646
     11 H          63.1269   90.1842   14.1204 H       1  UNL1        0.1566
     12 C          64.8981   91.3791   13.7583 C.ar    1  UNL1        0.1346
     13 C          65.8884   90.7653   14.7029 C.ar    1  UNL1        0.0368
     14 C          67.1513   91.4983   15.0461 C.ar    1  UNL1        0.0341
     15 C          67.4238   92.8451   14.4446 C.ar    1  UNL1        0.1593
     16 F          68.6867   93.5781   14.7878 F       1  UNL1       -0.2025
     17 C          66.4335   93.4589   13.5000 C.ar    1  UNL1        0.1298
     18 N          65.1706   92.7259   13.1568 N.ar    1  UNL1       -0.2267
     19 O          60.3200   87.8593    8.6198 O.3     1  UNL1       -0.4518
     20 C          61.1653   86.6741    8.2581 C.ar    1  UNL1        0.1652
     21 C          62.3183   86.2801    9.1331 C.ar    1  UNL1        0.1363
     22 N          63.1635   85.0949    8.7714 N.ar    1  UNL1       -0.2382
     23 C          62.8559   84.3037    7.5346 C.ar    1  UNL1        0.1104
     24 C          61.7030   84.6977    6.6597 C.ar    1  UNL1        0.0798
     25 CL         61.3953   83.9065    5.4230 Cl      1  UNL1       -0.0805
     26 C          60.8577   85.8829    7.0214 C.ar    1  UNL1        0.0521
@<TRIPOS>BOND
     1     1     2    1
     2     2     3   ar
     3     3     4   ar
     4     4    19    1
     5    19    20    1
     6    20    21   ar
     7    21    22   ar
     8    22    23   ar
     9    23    24   ar
    10    24    25    1
    11    24    26   ar
    12     4     5   ar
    13     5     6   ar
    14     6     8    1
    15     8     9    2
    16     8    10   am
    17    10    12    1
    18    12    13   ar
    19    13    14   ar
    20    14    15   ar
    21    15    16    1
    22    15    17   ar
    23    17    18   ar
    24     6     7   ar
    25     7     2   ar
    26    26    20   ar
    27    18    12   ar
    28    10    11    1
