@<TRIPOS>MOLECULE
*****
 33 36 0 0 0
SMALL
GASTEIGER

@<TRIPOS>ATOM
      1 C          64.0685   90.8115   13.8087 C.ar    1  UNL1        0.0685
      2 C          65.1005   91.8939   13.9228 C.ar    1  UNL1        0.0885
      3 C          65.5842   92.6019   12.6921 C.ar    1  UNL1        0.1263
      4 N          65.0358   92.2274   11.3471 N.ar    1  UNL1       -0.1633
      5 N          64.0037   91.1449   11.2329 N.ar    1  UNL1       -0.2270
      6 C          63.2854   90.5637   10.0513 C.ar    1  UNL1        0.1004
      7 C          62.3577   89.4965   10.5519 C.ar    1  UNL1        0.0207
      8 C          62.5028   89.4181   12.0428 C.ar    1  UNL1        0.0219
      9 C          63.5200   90.4369   12.4637 C.ar    1  UNL1        0.0961
     10 C          61.4452   88.6553    9.7094 C.ar    1  UNL1        0.0015
     11 C          60.4089   89.3088    8.8440 C.ar    1  UNL1        0.0000
     12 C          59.4964   88.4675    8.0016 C.ar    1  UNL1        0.0000
     13 C          59.6202   86.9728    8.0245 C.ar    1  UNL1        0.0000
     14 C          60.6565   86.3193    8.8900 C.ar    1  UNL1        0.0000
     15 C          61.5690   87.1606    9.7324 C.ar    1  UNL1        0.0000
     16 C          65.6489   92.2684   15.2679 C.2     1  UNL1        0.2456
     17 N          67.1231   92.4828   15.4435 N.am    1  UNL1       -0.3252
     18 O          64.7232   92.4285   16.4372 O.2     1  UNL1       -0.2703
     19 H          67.7307   92.3777   14.6760 H       1  UNL1        0.1453
     20 H          67.4831   92.7286   16.3263 H       1  UNL1        0.1453
     21 N          63.5848   90.1035   15.0395 N.pl3   1  UNL1       -0.3327
     22 H          63.1163   90.6062   15.7445 H       1  UNL1        0.1468
     23 C          62.7862   89.0707   16.8624 C.3     1  UNL1        0.0029
     24 C          63.3539   87.7823   16.3449 C.3     1  UNL1        0.0282
     25 C          62.7742   87.2045   17.6019 C.3     1  UNL1        0.0029
     26 C          63.8149   88.6295   15.1961 C.3     1  UNL1        0.0702
     27 C          64.5464   87.7439   14.2314 C.3     1  UNL1        0.0208
     28 C          64.5375   86.3495   14.7840 C.3     1  UNL1        0.0160
     29 C          63.8005   86.3732   16.0902 C.3     1  UNL1        0.0404
     30 C          63.1275   86.0900   17.4005 C.3     1  UNL1        0.0156
     31 N          64.1064   84.9049   16.1094 N.3     1  UNL1       -0.3231
     32 H          64.6302   84.6557   15.2704 H       1  UNL1        0.1188
     33 H          63.2344   84.3762   16.1354 H       1  UNL1        0.1188
@<TRIPOS>BOND
     1    23    24    1
     2    24    25    1
     3    24    26    1
     4    26    21    1
     5    21     1    1
     6     1     2   ar
     7     2    16    1
     8    16    17   am
     9    16    18    2
    10     2     3   ar
    11     3     4   ar
    12     4     5   ar
    13     5     6   ar
    14     6     7   ar
    15     7    10    1
    16    10    11   ar
    17    11    12   ar
    18    12    13   ar
    19    13    14   ar
    20    14    15   ar
    21     7     8   ar
    22     8     9   ar
    23    26    27    1
    24    27    28    1
    25    28    29    1
    26    29    30    1
    27    29    31    1
    28    29    24    1
    29     9     1   ar
    30     9     5   ar
    31    15    10   ar
    32    21    22    1
    33    17    19    1
    34    17    20    1
    35    31    32    1
    36    31    33    1
@<TRIPOS>MOLECULE
*****
 33 36 0 0 0
SMALL
GASTEIGER

@<TRIPOS>ATOM
      1 C          66.1542   92.0533   13.2485 C.ar    1  UNL1        0.0685
      2 C          66.5008   92.3835   14.6700 C.ar    1  UNL1        0.0885
      3 C          65.5727   91.9876   15.7797 C.ar    1  UNL1        0.1263
      4 N          64.2977   91.2612   15.4680 N.ar    1  UNL1       -0.1633
      5 N          63.9511   90.9310   14.0465 N.ar    1  UNL1       -0.2270
      6 C          62.7739   90.2285   13.4377 C.ar    1  UNL1        0.1004
      7 C          62.9745   90.1904   11.9517 C.ar    1  UNL1        0.0207
      8 C          64.2758   90.8693   11.6421 C.ar    1  UNL1        0.0219
      9 C          64.8793   91.3270   12.9367 C.ar    1  UNL1        0.0961
     10 C          62.0383   89.5804   10.9510 C.ar    1  UNL1        0.0015
     11 C          60.8310   90.3428   10.4915 C.ar    1  UNL1        0.0000
     12 C          59.8949   89.7327    9.4907 C.ar    1  UNL1        0.0000
     13 C          60.1660   88.3603    8.9494 C.ar    1  UNL1        0.0000
     14 C          61.3733   87.5979    9.4089 C.ar    1  UNL1        0.0000
     15 C          62.3094   88.2080   10.4097 C.ar    1  UNL1        0.0000
     16 C          67.7758   93.1099   14.9818 C.2     1  UNL1        0.2456
     17 N          67.7886   94.1890   16.0235 N.am    1  UNL1       -0.3252
     18 O          69.0377   92.7570   14.2518 O.2     1  UNL1       -0.2703
     19 H          66.9603   94.4205   16.5027 H       1  UNL1        0.1453
     20 H          68.6254   94.6657   16.2282 H       1  UNL1        0.1453
     21 N          67.0824   92.4493   12.1388 N.pl3   1  UNL1       -0.3327
     22 H          67.8531   91.8792   11.9146 H       1  UNL1        0.1468
     23 C          67.7635   92.5705   10.0059 C.3     1  UNL1        0.0029
     24 C          67.2225   93.9681    9.9435 C.3     1  UNL1        0.0282
     25 C          67.7217   93.9300    8.5296 C.3     1  UNL1        0.0029
     26 C          66.8364   93.7141   11.3705 C.3     1  UNL1        0.0702
     27 C          66.1611   94.9467   11.8945 C.3     1  UNL1        0.0208
     28 C          66.1298   95.9626   10.7914 C.3     1  UNL1        0.0160
     29 C          66.7858   95.3577    9.5856 C.3     1  UNL1        0.0404
     30 C          67.3763   95.0291    8.2465 C.3     1  UNL1        0.0156
     31 N          66.4726   96.6787    8.9477 N.3     1  UNL1       -0.3231
     32 H          65.9998   97.2790    9.6233 H       1  UNL1        0.1188
     33 H          65.8661   96.5314    8.1409 H       1  UNL1        0.1188
@<TRIPOS>BOND
     1    23    24    1
     2    24    25    1
     3    24    26    1
     4    26    21    1
     5    21     1    1
     6     1     2   ar
     7     2    16    1
     8    16    17   am
     9    16    18    2
    10     2     3   ar
    11     3     4   ar
    12     4     5   ar
    13     5     6   ar
    14     6     7   ar
    15     7    10    1
    16    10    11   ar
    17    11    12   ar
    18    12    13   ar
    19    13    14   ar
    20    14    15   ar
    21     7     8   ar
    22     8     9   ar
    23    26    27    1
    24    27    28    1
    25    28    29    1
    26    29    30    1
    27    29    31    1
    28    29    24    1
    29     9     1   ar
    30     9     5   ar
    31    15    10   ar
    32    21    22    1
    33    17    19    1
    34    17    20    1
    35    31    32    1
    36    31    33    1
@<TRIPOS>MOLECULE
*****
 33 36 0 0 0
SMALL
GASTEIGER

@<TRIPOS>ATOM
      1 C          61.7103   87.3982    9.5301 C.ar    1  UNL1        0.0685
      2 C          60.5011   87.4717    8.6457 C.ar    1  UNL1        0.0885
      3 C          59.6178   88.6834    8.6821 C.ar    1  UNL1        0.1263
      4 N          59.9437   89.8218    9.6030 N.ar    1  UNL1       -0.1633
      5 N          61.1530   89.7482   10.4875 N.ar    1  UNL1       -0.2270
      6 C          61.7230   90.7074   11.4900 C.ar    1  UNL1        0.1004
      7 C          62.9586   90.0883   12.0732 C.ar    1  UNL1        0.0207
      8 C          63.1522   88.7466   11.4311 C.ar    1  UNL1        0.0219
      9 C          62.0363   88.5364   10.4510 C.ar    1  UNL1        0.0961
     10 C          63.8449   90.7031   13.1155 C.ar    1  UNL1        0.0015
     11 C          63.5968   90.4268   14.5688 C.ar    1  UNL1        0.0000
     12 C          64.4832   91.0416   15.6111 C.ar    1  UNL1        0.0000
     13 C          65.6178   91.9326   15.2002 C.ar    1  UNL1        0.0000
     14 C          65.8660   92.2088   13.7469 C.ar    1  UNL1        0.0000
     15 C          64.9795   91.5940   12.7046 C.ar    1  UNL1        0.0000
     16 C          60.1751   86.3333    7.7247 C.2     1  UNL1        0.2456
     17 N          58.7457   86.0240    7.3915 N.am    1  UNL1       -0.3252
     18 O          61.2785   85.5045    7.1371 O.2     1  UNL1       -0.2703
     19 H          58.0215   86.5680    7.7772 H       1  UNL1        0.1453
     20 H          58.5318   85.2769    6.7871 H       1  UNL1        0.1453
     21 N          62.5936   86.1864    9.4936 N.pl3   1  UNL1       -0.3327
     22 H          63.1244   85.9881    8.6885 H       1  UNL1        0.1468
     23 C          63.6150   84.2020    9.2773 C.3     1  UNL1        0.0029
     24 C          63.3101   83.9212   10.7189 C.3     1  UNL1        0.0282
     25 C          64.0156   82.6247   10.4525 C.3     1  UNL1        0.0029
     26 C          62.6682   85.2765   10.6840 C.3     1  UNL1        0.0702
     27 C          62.1141   85.5623   12.0482 C.3     1  UNL1        0.0208
     28 C          62.4134   84.3836   12.9263 C.3     1  UNL1        0.0160
     29 C          63.1526   83.3694   12.1047 C.3     1  UNL1        0.0404
     30 C          63.8911   82.1882   11.5486 C.3     1  UNL1        0.0156
     31 N          63.1495   82.5706   13.3744 N.3     1  UNL1       -0.3231
     32 H          62.6725   83.0972   14.1062 H       1  UNL1        0.1188
     33 H          64.1105   82.3841   13.6610 H       1  UNL1        0.1188
@<TRIPOS>BOND
     1    23    24    1
     2    24    25    1
     3    24    26    1
     4    26    21    1
     5    21     1    1
     6     1     2   ar
     7     2    16    1
     8    16    17   am
     9    16    18    2
    10     2     3   ar
    11     3     4   ar
    12     4     5   ar
    13     5     6   ar
    14     6     7   ar
    15     7    10    1
    16    10    11   ar
    17    11    12   ar
    18    12    13   ar
    19    13    14   ar
    20    14    15   ar
    21     7     8   ar
    22     8     9   ar
    23    26    27    1
    24    27    28    1
    25    28    29    1
    26    29    30    1
    27    29    31    1
    28    29    24    1
    29     9     1   ar
    30     9     5   ar
    31    15    10   ar
    32    21    22    1
    33    17    19    1
    34    17    20    1
    35    31    32    1
    36    31    33    1
@<TRIPOS>MOLECULE
*****
 33 36 0 0 0
SMALL
GASTEIGER

@<TRIPOS>ATOM
      1 C          62.6205   88.0298   11.7008 C.ar    1  UNL1        0.0685
      2 C          63.2192   89.2581   12.3195 C.ar    1  UNL1        0.0885
      3 C          64.0343   89.1452   13.5735 C.ar    1  UNL1        0.1263
      4 N          64.2508   87.8037   14.2091 N.ar    1  UNL1       -0.1633
      5 N          63.6521   86.5754   13.5904 N.ar    1  UNL1       -0.2270
      6 C          63.6942   85.1295   13.9873 C.ar    1  UNL1        0.1004
      7 C          62.9051   84.3488   12.9784 C.ar    1  UNL1        0.0207
      8 C          62.3753   85.3123   11.9580 C.ar    1  UNL1        0.0219
      9 C          62.8370   86.6884   12.3363 C.ar    1  UNL1        0.0961
     10 C          62.6844   82.8652   12.9881 C.ar    1  UNL1        0.0015
     11 C          63.0615   82.0430   11.7915 C.ar    1  UNL1        0.0000
     12 C          62.8408   80.5593   11.8013 C.ar    1  UNL1        0.0000
     13 C          62.2431   79.8978   13.0076 C.ar    1  UNL1        0.0000
     14 C          61.8660   80.7200   14.2042 C.ar    1  UNL1        0.0000
     15 C          62.0867   82.2037   14.1944 C.ar    1  UNL1        0.0000
     16 C          63.0026   90.5995   11.6839 C.2     1  UNL1        0.2456
     17 N          64.1185   91.6013   11.6480 N.am    1  UNL1       -0.3252
     18 O          61.6704   90.9391   11.0844 O.2     1  UNL1       -0.2703
     19 H          64.9930   91.3784   12.0416 H       1  UNL1        0.1453
     20 H          63.9765   92.4817   11.2309 H       1  UNL1        0.1453
     21 N          61.8054   88.1428   10.4467 N.pl3   1  UNL1       -0.3327
     22 H          61.1961   88.9061   10.3228 H       1  UNL1        0.1468
     23 C          59.9887   87.6261    9.2383 C.3     1  UNL1        0.0029
     24 C          60.8119   86.6247    8.4837 C.3     1  UNL1        0.0282
     25 C          59.5330   86.3660    7.7437 C.3     1  UNL1        0.0029
     26 C          61.9186   87.0927    9.3814 C.3     1  UNL1        0.0702
     27 C          63.1584   86.3265    9.0270 C.3     1  UNL1        0.0208
     28 C          62.8179   85.3849    7.9102 C.3     1  UNL1        0.0160
     29 C          61.3677   85.5692    7.5744 C.3     1  UNL1        0.0404
     30 C          59.9726   85.5311    7.0245 C.3     1  UNL1        0.0156
     31 N          61.6318   84.5056    6.5501 N.3     1  UNL1       -0.3231
     32 H          62.6088   84.2174    6.6034 H       1  UNL1        0.1188
     33 H          61.4363   84.8740    5.6193 H       1  UNL1        0.1188
@<TRIPOS>BOND
     1    23    24    1
     2    24    25    1
     3    24    26    1
     4    26    21    1
     5    21     1    1
     6     1     2   ar
     7     2    16    1
     8    16    17   am
     9    16    18    2
    10     2     3   ar
    11     3     4   ar
    12     4     5   ar
    13     5     6   ar
    14     6     7   ar
    15     7    10    1
    16    10    11   ar
    17    11    12   ar
    18    12    13   ar
    19    13    14   ar
    20    14    15   ar
    21     7     8   ar
    22     8     9   ar
    23    26    27    1
    24    27    28    1
    25    28    29    1
    26    29    30    1
    27    29    31    1
    28    29    24    1
    29     9     1   ar
    30     9     5   ar
    31    15    10   ar
    32    21    22    1
    33    17    19    1
    34    17    20    1
    35    31    32    1
    36    31    33    1
@<TRIPOS>MOLECULE
*****
 33 36 0 0 0
SMALL
GASTEIGER

@<TRIPOS>ATOM
      1 C          63.8680   90.0904   14.1052 C.ar    1  UNL1        0.0685
      2 C          63.5345   90.1446   15.5666 C.ar    1  UNL1        0.0885
      3 C          64.0755   91.2542   16.4186 C.ar    1  UNL1        0.1263
      4 N          64.9500   92.3097   15.8093 N.ar    1  UNL1       -0.1633
      5 N          65.2835   92.2554   14.3478 N.ar    1  UNL1       -0.2270
      6 C          66.1140   93.1481   13.4741 C.ar    1  UNL1        0.1004
      7 C          66.0862   92.5902   12.0820 C.ar    1  UNL1        0.0207
      8 C          65.2386   91.3527   12.0954 C.ar    1  UNL1        0.0219
      9 C          64.7425   91.1458   13.4958 C.ar    1  UNL1        0.0961
     10 C          66.7837   93.1682   10.8864 C.ar    1  UNL1        0.0015
     11 C          67.7135   92.3151   10.0754 C.ar    1  UNL1        0.0000
     12 C          68.4108   92.8933    8.8798 C.ar    1  UNL1        0.0000
     13 C          68.1785   94.3244    8.4952 C.ar    1  UNL1        0.0000
     14 C          67.2487   95.1774    9.3062 C.ar    1  UNL1        0.0000
     15 C          66.5513   94.5993   10.5018 C.ar    1  UNL1        0.0000
     16 C          62.6600   89.0891   16.1760 C.2     1  UNL1        0.2456
     17 N          63.2745   87.8530   16.7628 N.am    1  UNL1       -0.3252
     18 O          61.1712   89.2698   16.1985 O.2     1  UNL1       -0.2703
     19 H          64.2517   87.7344   16.7480 H       1  UNL1        0.1453
     20 H          62.7006   87.1602   17.1627 H       1  UNL1        0.1453
     21 N          63.3270   88.9807   13.2531 N.pl3   1  UNL1       -0.3327
     22 H          63.5450   88.0448   13.4670 H       1  UNL1        0.1468
     23 C          62.9043   87.3675   11.7543 C.3     1  UNL1        0.0029
     24 C          62.0688   88.3449   10.9820 C.3     1  UNL1        0.0282
     25 C          61.8585   87.1883   10.0503 C.3     1  UNL1        0.0029
     26 C          62.4537   89.2971   12.0751 C.3     1  UNL1        0.0702
     27 C          61.8122   90.6213   11.7837 C.3     1  UNL1        0.0208
     28 C          61.0308   90.4874   10.5103 C.3     1  UNL1        0.0160
     29 C          61.1894   89.0805   10.0149 C.3     1  UNL1        0.0404
     30 C          61.1629   87.7702    9.2854 C.3     1  UNL1        0.0156
     31 N          60.3044   89.5423    8.8953 N.3     1  UNL1       -0.3231
     32 H          60.0612   90.5227    9.0363 H       1  UNL1        0.1188
     33 H          59.4536   88.9797    8.8802 H       1  UNL1        0.1188
@<TRIPOS>BOND
     1    23    24    1
     2    24    25    1
     3    24    26    1
     4    26    21    1
     5    21     1    1
     6     1     2   ar
     7     2    16    1
     8    16    17   am
     9    16    18    2
    10     2     3   ar
    11     3     4   ar
    12     4     5   ar
    13     5     6   ar
    14     6     7   ar
    15     7    10    1
    16    10    11   ar
    17    11    12   ar
    18    12    13   ar
    19    13    14   ar
    20    14    15   ar
    21     7     8   ar
    22     8     9   ar
    23    26    27    1
    24    27    28    1
    25    28    29    1
    26    29    30    1
    27    29    31    1
    28    29    24    1
    29     9     1   ar
    30     9     5   ar
    31    15    10   ar
    32    21    22    1
    33    17    19    1
    34    17    20    1
    35    31    32    1
    36    31    33    1
@<TRIPOS>MOLECULE
*****
 33 36 0 0 0
SMALL
GASTEIGER

@<TRIPOS>ATOM
      1 C          63.1985   88.1585   11.9655 C.ar    1  UNL1        0.0685
      2 C          63.5257   89.3658   12.7933 C.ar    1  UNL1        0.0885
      3 C          63.8167   89.2151   14.2570 C.ar    1  UNL1        0.1263
      4 N          63.7804   87.8570   14.8930 N.ar    1  UNL1       -0.1633
      5 N          63.4532   86.6497   14.0652 N.ar    1  UNL1       -0.2270
      6 C          63.3435   85.1946   14.4122 C.ar    1  UNL1        0.1004
      7 C          62.9848   84.4459   13.1629 C.ar    1  UNL1        0.0207
      8 C          62.8728   85.4384   12.0437 C.ar    1  UNL1        0.0219
      9 C          63.1623   86.8004   12.6014 C.ar    1  UNL1        0.0961
     10 C          62.7749   82.9648   13.0521 C.ar    1  UNL1        0.0015
     11 C          62.1815   82.2034   14.2002 C.ar    1  UNL1        0.0000
     12 C          61.9717   80.7223   14.0893 C.ar    1  UNL1        0.0000
     13 C          62.3552   80.0025   12.8304 C.ar    1  UNL1        0.0000
     14 C          62.9486   80.7639   11.6823 C.ar    1  UNL1        0.0000
     15 C          63.1585   82.2451   11.7932 C.ar    1  UNL1        0.0000
     16 C          63.5620   90.7238   12.1573 C.2     1  UNL1        0.2456
     17 N          64.6328   91.7024   12.5390 N.am    1  UNL1       -0.3252
     18 O          62.5275   91.1033   11.1396 O.2     1  UNL1       -0.2703
     19 H          65.3118   91.4533   13.2070 H       1  UNL1        0.1453
     20 H          64.6567   92.5937   12.1216 H       1  UNL1        0.1453
     21 N          62.9076   88.3092   10.5017 N.pl3   1  UNL1       -0.3327
     22 H          63.6029   88.6508    9.8942 H       1  UNL1        0.1468
     23 C          62.7719   86.7498    8.8962 C.3     1  UNL1        0.0029
     24 C          61.2819   86.9232    8.8949 C.3     1  UNL1        0.0282
     25 C          61.3182   85.8708    7.8268 C.3     1  UNL1        0.0029
     26 C          61.5571   87.9394    9.9634 C.3     1  UNL1        0.0702
     27 C          60.2449   88.5208   10.3992 C.3     1  UNL1        0.0208
     28 C          59.1587   87.8640    9.6000 C.3     1  UNL1        0.0160
     29 C          59.7996   86.8766    8.6704 C.3     1  UNL1        0.0404
     30 C          60.1458   85.8339    7.6491 C.3     1  UNL1        0.0156
     31 N          58.3896   86.6121    8.2323 N.3     1  UNL1       -0.3231
     32 H          57.7519   87.2064    8.7618 H       1  UNL1        0.1188
     33 H          58.1596   85.6326    8.3998 H       1  UNL1        0.1188
@<TRIPOS>BOND
     1    23    24    1
     2    24    25    1
     3    24    26    1
     4    26    21    1
     5    21     1    1
     6     1     2   ar
     7     2    16    1
     8    16    17   am
     9    16    18    2
    10     2     3   ar
    11     3     4   ar
    12     4     5   ar
    13     5     6   ar
    14     6     7   ar
    15     7    10    1
    16    10    11   ar
    17    11    12   ar
    18    12    13   ar
    19    13    14   ar
    20    14    15   ar
    21     7     8   ar
    22     8     9   ar
    23    26    27    1
    24    27    28    1
    25    28    29    1
    26    29    30    1
    27    29    31    1
    28    29    24    1
    29     9     1   ar
    30     9     5   ar
    31    15    10   ar
    32    21    22    1
    33    17    19    1
    34    17    20    1
    35    31    32    1
    36    31    33    1
@<TRIPOS>MOLECULE
*****
 33 36 0 0 0
SMALL
GASTEIGER

@<TRIPOS>ATOM
      1 C          63.8666   90.8557   13.2962 C.ar    1  UNL1        0.0685
      2 C          64.3163   90.1211   14.5242 C.ar    1  UNL1        0.0885
      3 C          65.6792   90.3784   15.0951 C.ar    1  UNL1        0.1263
      4 N          66.5926   91.3705   14.4381 N.ar    1  UNL1       -0.1633
      5 N          66.1429   92.1051   13.2101 N.ar    1  UNL1       -0.2270
      6 C          66.8187   93.1327   12.3514 C.ar    1  UNL1        0.1004
      7 C          65.8733   93.5105   11.2498 C.ar    1  UNL1        0.0207
      8 C          64.6133   92.7163   11.4276 C.ar    1  UNL1        0.0219
      9 C          64.7799   91.8477   12.6391 C.ar    1  UNL1        0.0961
     10 C          66.1410   94.5074   10.1614 C.ar    1  UNL1        0.0015
     11 C          67.1599   94.2064    9.1026 C.ar    1  UNL1        0.0000
     12 C          67.4275   95.2034    8.0143 C.ar    1  UNL1        0.0000
     13 C          66.6762   96.5013    7.9847 C.ar    1  UNL1        0.0000
     14 C          65.6572   96.8023    9.0435 C.ar    1  UNL1        0.0000
     15 C          65.3896   95.8053   10.1319 C.ar    1  UNL1        0.0000
     16 C          63.4029   89.1290   15.1813 C.2     1  UNL1        0.2456
     17 N          63.8278   87.6975   15.3226 N.am    1  UNL1       -0.3252
     18 O          62.0648   89.5686   15.6970 O.2     1  UNL1       -0.2703
     19 H          64.7062   87.4090   14.9841 H       1  UNL1        0.1453
     20 H          63.2284   87.0463   15.7538 H       1  UNL1        0.1453
     21 N          62.5036   90.5984   12.7253 N.pl3   1  UNL1       -0.3327
     22 H          61.7518   91.1889   12.9606 H       1  UNL1        0.1468
     23 C          61.0643   90.8334   11.0221 C.3     1  UNL1        0.0029
     24 C          61.3656   89.4225   10.6115 C.3     1  UNL1        0.0282
     25 C          60.3823   89.6989    9.5131 C.3     1  UNL1        0.0029
     26 C          62.2860   89.4412   11.7959 C.3     1  UNL1        0.0702
     27 C          62.9505   88.0996   11.8876 C.3     1  UNL1        0.0208
     28 C          62.4409   87.2518   10.7601 C.3     1  UNL1        0.0160
     29 C          61.4614   88.0695    9.9714 C.3     1  UNL1        0.0404
     30 C          60.4581   88.6286    9.0067 C.3     1  UNL1        0.0156
     31 N          61.3474   86.8332    9.1296 N.3     1  UNL1       -0.3231
     32 H          61.9607   86.1092    9.5039 H       1  UNL1        0.1188
     33 H          61.6211   87.0483    8.1708 H       1  UNL1        0.1188
@<TRIPOS>BOND
     1    23    24    1
     2    24    25    1
     3    24    26    1
     4    26    21    1
     5    21     1    1
     6     1     2   ar
     7     2    16    1
     8    16    17   am
     9    16    18    2
    10     2     3   ar
    11     3     4   ar
    12     4     5   ar
    13     5     6   ar
    14     6     7   ar
    15     7    10    1
    16    10    11   ar
    17    11    12   ar
    18    12    13   ar
    19    13    14   ar
    20    14    15   ar
    21     7     8   ar
    22     8     9   ar
    23    26    27    1
    24    27    28    1
    25    28    29    1
    26    29    30    1
    27    29    31    1
    28    29    24    1
    29     9     1   ar
    30     9     5   ar
    31    15    10   ar
    32    21    22    1
    33    17    19    1
    34    17    20    1
    35    31    32    1
    36    31    33    1
@<TRIPOS>MOLECULE
*****
 33 36 0 0 0
SMALL
GASTEIGER

@<TRIPOS>ATOM
      1 C          63.8242   90.2569   14.2418 C.ar    1  UNL1        0.0685
      2 C          63.5652   90.3455   15.7166 C.ar    1  UNL1        0.0885
      3 C          64.2318   91.4132   16.5323 C.ar    1  UNL1        0.1263
      4 N          65.1575   92.3924   15.8733 N.ar    1  UNL1       -0.1633
      5 N          65.4165   92.3039   14.3985 N.ar    1  UNL1       -0.2270
      6 C          66.2730   93.1229   13.4790 C.ar    1  UNL1        0.1004
      7 C          66.1357   92.5613   12.0949 C.ar    1  UNL1        0.0207
      8 C          65.1943   91.3952   12.1590 C.ar    1  UNL1        0.0219
      9 C          64.7498   91.2361   13.5828 C.ar    1  UNL1        0.0961
     10 C          66.8197   93.0755   10.8629 C.ar    1  UNL1        0.0015
     11 C          67.7927   92.2035   10.1260 C.ar    1  UNL1        0.0000
     12 C          68.4766   92.7178    8.8940 C.ar    1  UNL1        0.0000
     13 C          68.1876   94.1040    8.3989 C.ar    1  UNL1        0.0000
     14 C          67.2147   94.9759    9.1358 C.ar    1  UNL1        0.0000
     15 C          66.5307   94.4616   10.3678 C.ar    1  UNL1        0.0000
     16 C          62.6394   89.3662   16.3756 C.2     1  UNL1        0.2456
     17 N          63.1423   88.4863   17.4814 N.am    1  UNL1       -0.3252
     18 O          61.2111   89.2669   15.9287 O.2     1  UNL1       -0.2703
     19 H          64.0798   88.5515   17.7747 H       1  UNL1        0.1453
     20 H          62.5347   87.8436   17.9140 H       1  UNL1        0.1453
     21 N          63.1575   89.1892   13.4260 N.pl3   1  UNL1       -0.3327
     22 H          62.4527   89.4297   12.7820 H       1  UNL1        0.1468
     23 C          62.3996   87.6724   11.9589 C.3     1  UNL1        0.0029
     24 C          63.1540   86.6143   12.7081 C.3     1  UNL1        0.0282
     25 C          62.5855   85.6949   11.6682 C.3     1  UNL1        0.0029
     26 C          63.5647   87.7549   13.5914 C.3     1  UNL1        0.0702
     27 C          64.4541   87.2096   14.6692 C.3     1  UNL1        0.0208
     28 C          64.5930   85.7320   14.4520 C.3     1  UNL1        0.0160
     29 C          63.7895   85.3641   13.2400 C.3     1  UNL1        0.0404
     30 C          63.0882   84.7060   12.0888 C.3     1  UNL1        0.0156
     31 N          64.2784   83.9762   13.5312 N.3     1  UNL1       -0.3231
     32 H          64.8742   83.9923   14.3589 H       1  UNL1        0.1188
     33 H          64.8126   83.6297   12.7343 H       1  UNL1        0.1188
@<TRIPOS>BOND
     1    23    24    1
     2    24    25    1
     3    24    26    1
     4    26    21    1
     5    21     1    1
     6     1     2   ar
     7     2    16    1
     8    16    17   am
     9    16    18    2
    10     2     3   ar
    11     3     4   ar
    12     4     5   ar
    13     5     6   ar
    14     6     7   ar
    15     7    10    1
    16    10    11   ar
    17    11    12   ar
    18    12    13   ar
    19    13    14   ar
    20    14    15   ar
    21     7     8   ar
    22     8     9   ar
    23    26    27    1
    24    27    28    1
    25    28    29    1
    26    29    30    1
    27    29    31    1
    28    29    24    1
    29     9     1   ar
    30     9     5   ar
    31    15    10   ar
    32    21    22    1
    33    17    19    1
    34    17    20    1
    35    31    32    1
    36    31    33    1
@<TRIPOS>MOLECULE
*****
 33 36 0 0 0
SMALL
GASTEIGER

@<TRIPOS>ATOM
      1 C          60.9804   87.5611    9.9363 C.ar    1  UNL1        0.0685
      2 C          60.2205   87.7350    8.6548 C.ar    1  UNL1        0.0885
      3 C          60.2228   89.0620    7.9557 C.ar    1  UNL1        0.1263
      4 N          60.9850   90.2153    8.5380 N.ar    1  UNL1       -0.1633
      5 N          61.7449   90.0414    9.8195 N.ar    1  UNL1       -0.2270
      6 C          62.5814   90.9893   10.6269 C.ar    1  UNL1        0.1004
      7 C          63.0961   90.2480   11.8250 C.ar    1  UNL1        0.0207
      8 C          62.5777   88.8420   11.7582 C.ar    1  UNL1        0.0219
      9 C          61.7426   88.7143   10.5187 C.ar    1  UNL1        0.0961
     10 C          63.9749   90.8134   12.9011 C.ar    1  UNL1        0.0015
     11 C          65.0498   91.7991   12.5508 C.ar    1  UNL1        0.0000
     12 C          65.9286   92.3645   13.6270 C.ar    1  UNL1        0.0000
     13 C          65.7324   91.9442   15.0535 C.ar    1  UNL1        0.0000
     14 C          64.6575   90.9584   15.4038 C.ar    1  UNL1        0.0000
     15 C          63.7787   90.3931   14.3276 C.ar    1  UNL1        0.0000
     16 C          59.4583   86.5817    8.0725 C.2     1  UNL1        0.2456
     17 N          60.1908   85.4753    7.3730 N.am    1  UNL1       -0.3252
     18 O          57.9637   86.5348    8.1897 O.2     1  UNL1       -0.2703
     19 H          61.1718   85.5061    7.2961 H       1  UNL1        0.1453
     20 H          59.6906   84.7184    6.9908 H       1  UNL1        0.1453
     21 N          60.9781   86.2340   10.6355 N.pl3   1  UNL1       -0.3327
     22 H          60.2241   85.9856   11.2177 H       1  UNL1        0.1468
     23 C          61.8745   85.2482   12.4389 C.3     1  UNL1        0.0029
     24 C          62.8412   84.5416   11.5355 C.3     1  UNL1        0.0282
     25 C          63.3555   83.9457   12.8123 C.3     1  UNL1        0.0029
     26 C          62.1248   85.2852   10.4475 C.3     1  UNL1        0.0702
     27 C          62.7562   84.9137    9.1387 C.3     1  UNL1        0.0208
     28 C          63.8629   83.9404    9.4177 C.3     1  UNL1        0.0160
     29 C          63.9154   83.7105   10.8990 C.3     1  UNL1        0.0404
     30 C          64.2052   83.2883   12.3089 C.3     1  UNL1        0.0156
     31 N          65.0502   82.7910   10.5572 N.3     1  UNL1       -0.3231
     32 H          65.1971   82.7928    9.5479 H       1  UNL1        0.1188
     33 H          64.8265   81.8451   10.8666 H       1  UNL1        0.1188
@<TRIPOS>BOND
     1    23    24    1
     2    24    25    1
     3    24    26    1
     4    26    21    1
     5    21     1    1
     6     1     2   ar
     7     2    16    1
     8    16    17   am
     9    16    18    2
    10     2     3   ar
    11     3     4   ar
    12     4     5   ar
    13     5     6   ar
    14     6     7   ar
    15     7    10    1
    16    10    11   ar
    17    11    12   ar
    18    12    13   ar
    19    13    14   ar
    20    14    15   ar
    21     7     8   ar
    22     8     9   ar
    23    26    27    1
    24    27    28    1
    25    28    29    1
    26    29    30    1
    27    29    31    1
    28    29    24    1
    29     9     1   ar
    30     9     5   ar
    31    15    10   ar
    32    21    22    1
    33    17    19    1
    34    17    20    1
    35    31    32    1
    36    31    33    1
