@<TRIPOS>MOLECULE
*****
 41 45 0 0 0
SMALL
GASTEIGER

@<TRIPOS>ATOM
      1 C          64.1411   85.7994   14.3829 C.3     1  UNL1        0.1484
      2 O          64.6861   85.0076   15.5344 O.3     1  UNL1       -0.3810
      3 H          65.0543   85.6126   16.1973 H       1  UNL1        0.2105
      4 C          64.2248   87.2971   14.3961 C.3     1  UNL1        0.1246
      5 C          63.4180   87.3600   16.8650 C.3     1  UNL1        0.1153
      6 N          63.7034   88.0670   15.5732 N.am    1  UNL1       -0.2718
      7 C          63.4673   89.5438   15.4584 C.2     1  UNL1        0.2492
      8 O          62.9459   90.3137   16.6354 O.2     1  UNL1       -0.2699
      9 C          63.7527   90.2508   14.1665 C.ar    1  UNL1        0.0567
     10 C          63.0973   89.7898   12.8986 C.ar    1  UNL1        0.0063
     11 C          63.3827   90.4968   11.6068 C.ar    1  UNL1        0.0225
     12 C          64.3235   91.6648   11.5831 C.ar    1  UNL1        0.1202
     13 N          64.7943   92.5519   10.4688 N.ar    1  UNL1       -0.1946
     14 C          65.7407   93.5612   11.0482 C.ar    1  UNL1        0.2924
     15 O          65.8548   93.2978   12.5205 O.2     1  UNL1       -0.4237
     16 C          64.9790   92.1258   12.8510 C.ar    1  UNL1        0.1662
     17 C          64.6936   91.4188   14.1428 C.ar    1  UNL1        0.0437
     18 N          66.4487   94.6438   10.2886 N.pl3   1  UNL1       -0.2636
     19 C          66.4921   96.0967   10.6588 C.3     1  UNL1        0.0951
     20 C          67.3078   96.8143    9.6245 C.3     1  UNL1        0.0233
     21 C          67.7685   95.8049    8.6152 C.3     1  UNL1        0.0233
     22 C          67.2375   94.4633    9.0257 C.3     1  UNL1        0.0951
     23 C          63.5125   85.0937   13.2181 C.3     1  UNL1        0.1075
     24 N          62.3465   85.7131   12.5062 N.am    1  UNL1       -0.2695
     25 C          62.1526   85.4767   11.0377 C.2     1  UNL1        0.4020
     26 O          63.1248   84.6207   10.2811 O.2     1  UNL1       -0.2264
     27 H          61.7085   86.2749   13.0028 H       1  UNL1        0.1528
     28 O          60.9867   86.0961   10.3258 O.3     1  UNL1       -0.4291
     29 C          61.1051   87.4777    9.7538 C.3     1  UNL1        0.2447
     30 C          60.4204   88.6297   10.4278 C.ar    1  UNL1        0.0714
     31 C          60.2848   90.0188    9.8782 C.ar    1  UNL1        0.1053
     32 N          59.5317   90.8424   10.8804 N.ar    1  UNL1       -0.2350
     33 C          59.2018   89.9623   12.0495 C.ar    1  UNL1        0.1343
     34 S          59.7510   88.5948   11.7698 S.2     1  UNL1       -0.0652
     35 C          64.0498   83.7685   12.7653 C.3     1  UNL1        0.0485
     36 C          63.2566   82.5174   13.0010 C.ar    1  UNL1       -0.0204
     37 C          62.2853   82.4490   14.1420 C.ar    1  UNL1       -0.0042
     38 C          61.4920   81.1979   14.3777 C.ar    1  UNL1       -0.0003
     39 C          61.6700   80.0153   13.4724 C.ar    1  UNL1       -0.0000
     40 C          62.6413   80.0837   12.3314 C.ar    1  UNL1       -0.0003
     41 C          63.4346   81.3347   12.0957 C.ar    1  UNL1       -0.0042
@<TRIPOS>BOND
     1     5     6    1
     2     6     4    1
     3     4     1    1
     4     1     2    1
     5     1    23    1
     6    23    35    1
     7    35    36    1
     8    36    37   ar
     9    37    38   ar
    10    38    39   ar
    11    39    40   ar
    12    40    41   ar
    13    23    24    1
    14    24    25   am
    15    25    26    2
    16    25    28    1
    17    28    29    1
    18    29    30    1
    19    30    31   ar
    20    31    32   ar
    21    32    33   ar
    22    33    34   ar
    23     6     7   am
    24     7     8    2
    25     7     9    1
    26     9    10   ar
    27    10    11   ar
    28    11    12   ar
    29    12    13   ar
    30    13    14   ar
    31    14    18    1
    32    18    19    1
    33    19    20    1
    34    20    21    1
    35    21    22    1
    36    14    15   ar
    37    15    16   ar
    38    16    17   ar
    39    41    36   ar
    40    34    30   ar
    41    17     9   ar
    42    16    12   ar
    43    22    18    1
    44     2     3    1
    45    24    27    1
@<TRIPOS>MOLECULE
*****
 41 45 0 0 0
SMALL
GASTEIGER

@<TRIPOS>ATOM
      1 C          64.3841   85.6912   14.5452 C.3     1  UNL1        0.1484
      2 O          65.6703   84.9931   14.8740 O.3     1  UNL1       -0.3810
      3 H          66.3624   85.6520   15.0406 H       1  UNL1        0.2105
      4 C          64.3302   87.1900   14.5169 C.3     1  UNL1        0.1246
      5 C          63.4758   87.2338   16.9701 C.3     1  UNL1        0.1153
      6 N          63.7428   87.9414   15.6747 N.am    1  UNL1       -0.2718
      7 C          63.4224   89.4003   15.5371 C.2     1  UNL1        0.2492
      8 O          62.8350   90.1516   16.6949 O.2     1  UNL1       -0.2699
      9 C          63.6894   90.1079   14.2416 C.ar    1  UNL1        0.0567
     10 C          62.9888   89.6700   12.9896 C.ar    1  UNL1        0.0063
     11 C          63.2558   90.3776   11.6943 C.ar    1  UNL1        0.0225
     12 C          64.2234   91.5230   11.6509 C.ar    1  UNL1        0.1202
     13 N          64.6847   92.4052   10.5288 N.ar    1  UNL1       -0.1946
     14 C          65.6704   93.3883   11.0874 C.ar    1  UNL1        0.2924
     15 O          65.8182   93.1136   12.5546 O.2     1  UNL1       -0.4237
     16 C          64.9239   91.9609   12.9029 C.ar    1  UNL1        0.1662
     17 C          64.6569   91.2533   14.1982 C.ar    1  UNL1        0.0437
     18 N          66.3832   94.4582   10.3145 N.pl3   1  UNL1       -0.2636
     19 C          66.3049   95.9336   10.5735 C.3     1  UNL1        0.0951
     20 C          67.1728   96.6277    9.5659 C.3     1  UNL1        0.0233
     21 C          67.7873   95.5813    8.6843 C.3     1  UNL1        0.0233
     22 C          67.2992   94.2404    9.1469 C.3     1  UNL1        0.0951
     23 C          63.1517   84.8906   14.2448 C.3     1  UNL1        0.1075
     24 N          62.2037   85.3460   13.1752 N.am    1  UNL1       -0.2695
     25 C          62.4730   85.0049   11.7395 C.2     1  UNL1        0.4020
     26 O          63.6903   84.2084   11.3735 O.2     1  UNL1       -0.2264
     27 H          61.4048   85.8688   13.4155 H       1  UNL1        0.1528
     28 O          61.5251   85.4603   10.6699 O.3     1  UNL1       -0.4291
     29 C          61.0160   86.8713   10.6700 C.3     1  UNL1        0.2447
     30 C          60.3778   87.4384    9.4366 C.ar    1  UNL1        0.0714
     31 C          59.6792   86.6545    8.3654 C.ar    1  UNL1        0.1053
     32 N          59.1958   87.6205    7.3246 N.ar    1  UNL1       -0.2350
     33 C          59.5956   89.0014    7.7527 C.ar    1  UNL1        0.1343
     34 S          60.3262   88.8888    9.0579 S.2     1  UNL1       -0.0652
     35 C          62.8672   83.6347   15.0140 C.3     1  UNL1        0.0485
     36 C          62.6773   82.3366   14.2867 C.ar    1  UNL1       -0.0204
     37 C          63.7550   81.8201   13.3803 C.ar    1  UNL1       -0.0042
     38 C          63.5650   80.5220   12.6529 C.ar    1  UNL1       -0.0003
     39 C          62.2972   79.7405   12.8321 C.ar    1  UNL1       -0.0000
     40 C          61.2195   80.2571   13.7385 C.ar    1  UNL1       -0.0003
     41 C          61.4095   81.5551   14.4658 C.ar    1  UNL1       -0.0042
@<TRIPOS>BOND
     1     5     6    1
     2     6     4    1
     3     4     1    1
     4     1     2    1
     5     1    23    1
     6    23    35    1
     7    35    36    1
     8    36    37   ar
     9    37    38   ar
    10    38    39   ar
    11    39    40   ar
    12    40    41   ar
    13    23    24    1
    14    24    25   am
    15    25    26    2
    16    25    28    1
    17    28    29    1
    18    29    30    1
    19    30    31   ar
    20    31    32   ar
    21    32    33   ar
    22    33    34   ar
    23     6     7   am
    24     7     8    2
    25     7     9    1
    26     9    10   ar
    27    10    11   ar
    28    11    12   ar
    29    12    13   ar
    30    13    14   ar
    31    14    18    1
    32    18    19    1
    33    19    20    1
    34    20    21    1
    35    21    22    1
    36    14    15   ar
    37    15    16   ar
    38    16    17   ar
    39    41    36   ar
    40    34    30   ar
    41    17     9   ar
    42    16    12   ar
    43    22    18    1
    44     2     3    1
    45    24    27    1
@<TRIPOS>MOLECULE
*****
 41 45 0 0 0
SMALL
GASTEIGER

@<TRIPOS>ATOM
      1 C          62.9415   90.0056   12.9327 C.3     1  UNL1        0.1484
      2 O          61.6083   89.9395   13.6169 O.3     1  UNL1       -0.3810
      3 H          60.9444   89.5957   12.9989 H       1  UNL1        0.2105
      4 C          63.0733   89.5706   11.5032 C.3     1  UNL1        0.1246
      5 C          61.5054   91.3012   10.3645 C.3     1  UNL1        0.1153
      6 N          61.9869   89.8890   10.5192 N.am    1  UNL1       -0.2718
      7 C          61.3819   88.7952    9.6900 C.2     1  UNL1        0.2492
      8 O          60.2955   89.1136    8.7059 O.2     1  UNL1       -0.2699
      9 C          61.8634   87.3830    9.8447 C.ar    1  UNL1        0.0567
     10 C          62.5434   86.6927    8.6997 C.ar    1  UNL1        0.0063
     11 C          63.0249   85.2806    8.8545 C.ar    1  UNL1        0.0225
     12 C          62.8263   84.5587   10.1542 C.ar    1  UNL1        0.1202
     13 N          63.1919   83.1735   10.5991 N.ar    1  UNL1       -0.1946
     14 C          62.7377   83.0078   12.0190 C.ar    1  UNL1        0.2924
     15 O          62.0915   84.2904   12.4517 O.2     1  UNL1       -0.4237
     16 C          62.1463   85.2489   11.2992 C.ar    1  UNL1        0.1662
     17 C          61.6649   86.6611   11.1445 C.ar    1  UNL1        0.0437
     18 N          62.9011   81.7756   12.8588 N.pl3   1  UNL1       -0.2636
     19 C          61.8240   80.7858   13.1909 C.3     1  UNL1        0.0951
     20 C          62.4275   79.7155   14.0513 C.3     1  UNL1        0.0233
     21 C          63.8774   80.0438   14.2510 C.3     1  UNL1        0.0233
     22 C          64.1701   81.3171   13.5139 C.3     1  UNL1        0.0951
     23 C          64.1430   90.5067   13.6780 C.3     1  UNL1        0.1075
     24 N          65.1401   91.3888   12.9869 N.am    1  UNL1       -0.2695
     25 C          65.7798   92.5237   13.7305 C.2     1  UNL1        0.4020
     26 O          65.4223   92.7764   15.1652 O.2     1  UNL1       -0.2264
     27 H          65.3748   91.2229   12.0452 H       1  UNL1        0.1528
     28 O          66.7769   93.4058   13.0394 O.3     1  UNL1       -0.4291
     29 C          66.3093   94.4486   12.0679 C.3     1  UNL1        0.2447
     30 C          66.8268   94.4478   10.6600 C.ar    1  UNL1        0.0714
     31 C          67.3849   93.2644    9.9265 C.ar    1  UNL1        0.1053
     32 N          67.7801   93.7153    8.5515 N.ar    1  UNL1       -0.2350
     33 C          67.4661   95.1776    8.4353 C.ar    1  UNL1        0.1343
     34 S          66.8770   95.6302    9.7384 S.2     1  UNL1       -0.0652
     35 C          64.3473   90.1256   15.1143 C.3     1  UNL1        0.0485
     36 C          64.0095   88.7397   15.5779 C.ar    1  UNL1       -0.0204
     37 C          63.1882   88.5428   16.8175 C.ar    1  UNL1       -0.0042
     38 C          62.8504   87.1567   17.2811 C.ar    1  UNL1       -0.0003
     39 C          63.3339   85.9677   16.5051 C.ar    1  UNL1       -0.0000
     40 C          64.1552   86.1646   15.2654 C.ar    1  UNL1       -0.0003
     41 C          64.4930   87.5505   14.8018 C.ar    1  UNL1       -0.0042
@<TRIPOS>BOND
     1     5     6    1
     2     6     4    1
     3     4     1    1
     4     1     2    1
     5     1    23    1
     6    23    35    1
     7    35    36    1
     8    36    37   ar
     9    37    38   ar
    10    38    39   ar
    11    39    40   ar
    12    40    41   ar
    13    23    24    1
    14    24    25   am
    15    25    26    2
    16    25    28    1
    17    28    29    1
    18    29    30    1
    19    30    31   ar
    20    31    32   ar
    21    32    33   ar
    22    33    34   ar
    23     6     7   am
    24     7     8    2
    25     7     9    1
    26     9    10   ar
    27    10    11   ar
    28    11    12   ar
    29    12    13   ar
    30    13    14   ar
    31    14    18    1
    32    18    19    1
    33    19    20    1
    34    20    21    1
    35    21    22    1
    36    14    15   ar
    37    15    16   ar
    38    16    17   ar
    39    41    36   ar
    40    34    30   ar
    41    17     9   ar
    42    16    12   ar
    43    22    18    1
    44     2     3    1
    45    24    27    1
@<TRIPOS>MOLECULE
*****
 41 45 0 0 0
SMALL
GASTEIGER

@<TRIPOS>ATOM
      1 C          63.5588   87.7203   13.0333 C.3     1  UNL1        0.1484
      2 O          63.2178   88.8048   12.0548 O.3     1  UNL1       -0.3810
      3 H          63.5950   89.6451   12.3591 H       1  UNL1        0.2105
      4 C          64.3694   88.0396   14.2545 C.3     1  UNL1        0.1246
      5 C          62.8225   87.9970   16.3414 C.3     1  UNL1        0.1153
      6 N          63.7323   88.7466   15.4138 N.am    1  UNL1       -0.2718
      7 C          64.0049   90.2033   15.6456 C.2     1  UNL1        0.2492
      8 O          63.3678   90.9104   16.8050 O.2     1  UNL1       -0.2699
      9 C          64.9146   90.9530   14.7180 C.ar    1  UNL1        0.0567
     10 C          66.3966   90.9412   14.9491 C.ar    1  UNL1        0.0063
     11 C          67.3063   91.6908   14.0215 C.ar    1  UNL1        0.0225
     12 C          66.7340   92.4523   12.8628 C.ar    1  UNL1        0.1202
     13 N          67.3773   93.2784   11.7886 N.ar    1  UNL1       -0.1946
     14 C          66.2928   93.8008   10.8937 C.ar    1  UNL1        0.2924
     15 O          64.9793   93.2975   11.4147 O.2     1  UNL1       -0.4237
     16 C          65.2520   92.4641   12.6317 C.ar    1  UNL1        0.1662
     17 C          64.3423   91.7145   13.5593 C.ar    1  UNL1        0.0437
     18 N          66.4875   94.6733    9.6891 N.pl3   1  UNL1       -0.2636
     19 C          67.3484   94.3578    8.5019 C.3     1  UNL1        0.0951
     20 C          67.2484   95.5040    7.5394 C.3     1  UNL1        0.0233
     21 C          66.3260   96.5277    8.1318 C.3     1  UNL1        0.0233
     22 C          65.8557   96.0142    9.4604 C.3     1  UNL1        0.0951
     23 C          63.0891   86.3165   12.7909 C.3     1  UNL1        0.1075
     24 N          61.8400   86.0700   11.9977 N.am    1  UNL1       -0.2695
     25 C          61.8541   86.2329   10.5066 C.2     1  UNL1        0.4020
     26 O          63.1173   86.6423    9.8087 O.2     1  UNL1       -0.2264
     27 H          61.0110   85.8013   12.4557 H       1  UNL1        0.1528
     28 O          60.6051   85.9864    9.7134 O.3     1  UNL1       -0.4291
     29 C          59.7028   87.1314    9.3602 C.3     1  UNL1        0.2447
     30 C          59.8443   88.4448   10.0709 C.ar    1  UNL1        0.0714
     31 C          60.4471   89.6948    9.5016 C.ar    1  UNL1        0.1053
     32 N          60.3833   90.7613   10.5545 N.ar    1  UNL1       -0.2350
     33 C          59.7411   90.1703   11.7745 C.ar    1  UNL1        0.1343
     34 S          59.4080   88.7386   11.4756 S.2     1  UNL1       -0.0652
     35 C          63.8685   85.1592   13.3415 C.3     1  UNL1        0.0485
     36 C          63.3128   83.7691   13.2492 C.ar    1  UNL1       -0.0204
     37 C          63.5797   82.9340   12.0321 C.ar    1  UNL1       -0.0042
     38 C          63.0239   81.5437   11.9398 C.ar    1  UNL1       -0.0003
     39 C          62.2015   80.9886   13.0646 C.ar    1  UNL1       -0.0000
     40 C          61.9346   81.8237   14.2818 C.ar    1  UNL1       -0.0003
     41 C          62.4903   83.2139   14.3741 C.ar    1  UNL1       -0.0042
@<TRIPOS>BOND
     1     5     6    1
     2     6     4    1
     3     4     1    1
     4     1     2    1
     5     1    23    1
     6    23    35    1
     7    35    36    1
     8    36    37   ar
     9    37    38   ar
    10    38    39   ar
    11    39    40   ar
    12    40    41   ar
    13    23    24    1
    14    24    25   am
    15    25    26    2
    16    25    28    1
    17    28    29    1
    18    29    30    1
    19    30    31   ar
    20    31    32   ar
    21    32    33   ar
    22    33    34   ar
    23     6     7   am
    24     7     8    2
    25     7     9    1
    26     9    10   ar
    27    10    11   ar
    28    11    12   ar
    29    12    13   ar
    30    13    14   ar
    31    14    18    1
    32    18    19    1
    33    19    20    1
    34    20    21    1
    35    21    22    1
    36    14    15   ar
    37    15    16   ar
    38    16    17   ar
    39    41    36   ar
    40    34    30   ar
    41    17     9   ar
    42    16    12   ar
    43    22    18    1
    44     2     3    1
    45    24    27    1
@<TRIPOS>MOLECULE
*****
 41 45 0 0 0
SMALL
GASTEIGER

@<TRIPOS>ATOM
      1 C          64.4432   84.7343   13.5455 C.3     1  UNL1        0.1484
      2 O          65.4474   83.6615   13.2446 O.3     1  UNL1       -0.3810
      3 H          66.0925   83.6106   13.9672 H       1  UNL1        0.2105
      4 C          64.5499   85.5269   14.8146 C.3     1  UNL1        0.1246
      5 C          63.2121   83.8919   16.3268 C.3     1  UNL1        0.1153
      6 N          63.5745   85.2922   15.9297 N.am    1  UNL1       -0.2718
      7 C          62.9615   86.4579   16.6477 C.2     1  UNL1        0.2492
      8 O          61.9861   86.2232   17.7628 O.2     1  UNL1       -0.2699
      9 C          63.3239   87.8583   16.2505 C.ar    1  UNL1        0.0567
     10 C          63.1473   88.9839   17.2260 C.ar    1  UNL1        0.0063
     11 C          63.5098   90.3842   16.8289 C.ar    1  UNL1        0.0225
     12 C          64.0488   90.6588   15.4563 C.ar    1  UNL1        0.1202
     13 N          64.4892   91.9265   14.7860 N.ar    1  UNL1       -0.1946
     14 C          64.9380   91.5842   13.3962 C.ar    1  UNL1        0.2924
     15 O          64.7749   90.1050   13.2076 O.2     1  UNL1       -0.4237
     16 C          64.2254   89.5332   14.4808 C.ar    1  UNL1        0.1662
     17 C          63.8630   88.1329   14.8779 C.ar    1  UNL1        0.0437
     18 N          65.4584   92.5512   12.3744 N.pl3   1  UNL1       -0.2636
     19 C          65.3768   92.3894   10.8854 C.3     1  UNL1        0.0951
     20 C          66.0198   93.5880   10.2530 C.3     1  UNL1        0.0233
     21 C          66.4988   94.4905   11.3512 C.3     1  UNL1        0.0233
     22 C          66.1518   93.8497   12.6624 C.3     1  UNL1        0.0951
     23 C          63.3322   85.0146   12.5774 C.3     1  UNL1        0.1075
     24 N          62.7426   86.3911   12.4905 N.am    1  UNL1       -0.2695
     25 C          62.3571   86.9590   11.1567 C.2     1  UNL1        0.4020
     26 O          62.5612   86.1503    9.9099 O.2     1  UNL1       -0.2264
     27 H          62.6087   86.9219   13.3088 H       1  UNL1        0.1528
     28 O          61.7675   88.3355   11.0697 O.3     1  UNL1       -0.4291
     29 C          60.3214   88.5108   10.7120 C.3     1  UNL1        0.2447
     30 C          59.8588   88.2492    9.3092 C.ar    1  UNL1        0.0714
     31 C          59.3192   86.9509    8.7865 C.ar    1  UNL1        0.1053
     32 N          58.9815   87.1392    7.3372 N.ar    1  UNL1       -0.2350
     33 C          59.3124   88.5539    6.9642 C.ar    1  UNL1        0.1343
     34 S          59.8546   89.2399    8.1830 S.2     1  UNL1       -0.0652
     35 C          62.8108   83.9183   11.6963 C.3     1  UNL1        0.0485
     36 C          62.5408   82.5591   12.2704 C.ar    1  UNL1       -0.0204
     37 C          61.8757   82.4288   13.6086 C.ar    1  UNL1       -0.0042
     38 C          61.6057   81.0695   14.1827 C.ar    1  UNL1       -0.0003
     39 C          62.0008   79.8407   13.4186 C.ar    1  UNL1       -0.0000
     40 C          62.6660   79.9710   12.0805 C.ar    1  UNL1       -0.0003
     41 C          62.9360   81.3302   11.5064 C.ar    1  UNL1       -0.0042
@<TRIPOS>BOND
     1     5     6    1
     2     6     4    1
     3     4     1    1
     4     1     2    1
     5     1    23    1
     6    23    35    1
     7    35    36    1
     8    36    37   ar
     9    37    38   ar
    10    38    39   ar
    11    39    40   ar
    12    40    41   ar
    13    23    24    1
    14    24    25   am
    15    25    26    2
    16    25    28    1
    17    28    29    1
    18    29    30    1
    19    30    31   ar
    20    31    32   ar
    21    32    33   ar
    22    33    34   ar
    23     6     7   am
    24     7     8    2
    25     7     9    1
    26     9    10   ar
    27    10    11   ar
    28    11    12   ar
    29    12    13   ar
    30    13    14   ar
    31    14    18    1
    32    18    19    1
    33    19    20    1
    34    20    21    1
    35    21    22    1
    36    14    15   ar
    37    15    16   ar
    38    16    17   ar
    39    41    36   ar
    40    34    30   ar
    41    17     9   ar
    42    16    12   ar
    43    22    18    1
    44     2     3    1
    45    24    27    1
@<TRIPOS>MOLECULE
*****
 41 45 0 0 0
SMALL
GASTEIGER

@<TRIPOS>ATOM
      1 C          61.0618   89.7090   10.2839 C.3     1  UNL1        0.1484
      2 O          60.2355   90.7074   11.0391 O.3     1  UNL1       -0.3810
      3 H          60.7726   91.1065   11.7414 H       1  UNL1        0.2105
      4 C          62.4909   89.4709   10.6726 C.3     1  UNL1        0.1246
      5 C          63.3330   91.9261   10.7877 C.3     1  UNL1        0.1153
      6 N          63.2668   90.5466   11.3733 N.am    1  UNL1       -0.2718
      7 C          63.9764   90.2429   12.6594 C.2     1  UNL1        0.2492
      8 O          64.7522   91.3186   13.3601 O.2     1  UNL1       -0.2699
      9 C          63.9101   88.8635   13.2450 C.ar    1  UNL1        0.0567
     10 C          64.3809   88.6210   14.6484 C.ar    1  UNL1        0.0063
     11 C          64.3146   87.2416   15.2338 C.ar    1  UNL1        0.0225
     12 C          63.7777   86.1047   14.4159 C.ar    1  UNL1        0.1202
     13 N          63.5919   84.6480   14.7220 N.ar    1  UNL1       -0.1946
     14 C          63.0064   83.9902   13.5078 C.ar    1  UNL1        0.2924
     15 O          62.8303   85.0403   12.4512 O.2     1  UNL1       -0.4237
     16 C          63.3069   86.3471   13.0125 C.ar    1  UNL1        0.1662
     17 C          63.3732   87.7265   12.4270 C.ar    1  UNL1        0.0437
     18 N          62.6581   82.5373   13.3735 N.pl3   1  UNL1       -0.2636
     19 C          63.1894   81.5957   12.3337 C.3     1  UNL1        0.0951
     20 C          62.5770   80.2475   12.5732 C.3     1  UNL1        0.0233
     21 C          61.6673   80.3559   13.7608 C.3     1  UNL1        0.0233
     22 C          61.7174   81.7712   14.2555 C.3     1  UNL1        0.0951
     23 C          60.4591   88.9487    9.1400 C.3     1  UNL1        0.1075
     24 N          60.1432   89.6538    7.8542 N.am    1  UNL1       -0.2695
     25 C          59.0161   89.1701    6.9908 C.2     1  UNL1        0.4020
     26 O          58.2047   87.9812    7.4132 O.2     1  UNL1       -0.2264
     27 H          60.6758   90.4341    7.5770 H       1  UNL1        0.1528
     28 O          58.7002   89.8751    5.7051 O.3     1  UNL1       -0.4291
     29 C          59.0150   91.3338    5.5527 C.3     1  UNL1        0.2447
     30 C          59.9794   91.7866    4.4967 C.ar    1  UNL1        0.0714
     31 C          61.3993   91.3275    4.3441 C.ar    1  UNL1        0.1053
     32 N          61.9907   92.0351    3.1611 N.ar    1  UNL1       -0.2350
     33 C          60.9363   92.9315    2.5825 C.ar    1  UNL1        0.1343
     34 S          59.6933   92.7779    3.4080 S.2     1  UNL1       -0.0652
     35 C          60.1721   87.4832    9.2818 C.3     1  UNL1        0.0485
     36 C          61.0423   86.4780    8.5873 C.ar    1  UNL1       -0.0204
     37 C          62.4011   86.1565    9.1353 C.ar    1  UNL1       -0.0042
     38 C          63.2713   85.1513    8.4407 C.ar    1  UNL1       -0.0003
     39 C          62.7827   84.4676    7.1982 C.ar    1  UNL1       -0.0000
     40 C          61.4239   84.7891    6.6502 C.ar    1  UNL1       -0.0003
     41 C          60.5537   85.7943    7.3447 C.ar    1  UNL1       -0.0042
@<TRIPOS>BOND
     1     5     6    1
     2     6     4    1
     3     4     1    1
     4     1     2    1
     5     1    23    1
     6    23    35    1
     7    35    36    1
     8    36    37   ar
     9    37    38   ar
    10    38    39   ar
    11    39    40   ar
    12    40    41   ar
    13    23    24    1
    14    24    25   am
    15    25    26    2
    16    25    28    1
    17    28    29    1
    18    29    30    1
    19    30    31   ar
    20    31    32   ar
    21    32    33   ar
    22    33    34   ar
    23     6     7   am
    24     7     8    2
    25     7     9    1
    26     9    10   ar
    27    10    11   ar
    28    11    12   ar
    29    12    13   ar
    30    13    14   ar
    31    14    18    1
    32    18    19    1
    33    19    20    1
    34    20    21    1
    35    21    22    1
    36    14    15   ar
    37    15    16   ar
    38    16    17   ar
    39    41    36   ar
    40    34    30   ar
    41    17     9   ar
    42    16    12   ar
    43    22    18    1
    44     2     3    1
    45    24    27    1
@<TRIPOS>MOLECULE
*****
 41 45 0 0 0
SMALL
GASTEIGER

@<TRIPOS>ATOM
      1 C          62.5581   86.0724    9.5128 C.3     1  UNL1        0.1484
      2 O          62.9291   85.5484    8.1572 O.3     1  UNL1       -0.3810
      3 H          63.0482   86.2913    7.5449 H       1  UNL1        0.2105
      4 C          62.4281   87.5501    9.7360 C.3     1  UNL1        0.1246
      5 C          59.8378   87.3822    9.6242 C.3     1  UNL1        0.1153
      6 N          61.0759   88.1581    9.9639 N.am    1  UNL1       -0.2718
      7 C          60.9617   89.5418   10.5314 C.2     1  UNL1        0.2492
      8 O          59.6095   90.1498   10.7594 O.2     1  UNL1       -0.2699
      9 C          62.1998   90.3177   10.8711 C.ar    1  UNL1        0.0567
     10 C          62.8519   91.1817    9.8328 C.ar    1  UNL1        0.0063
     11 C          64.0899   91.9575   10.1725 C.ar    1  UNL1        0.0225
     12 C          64.6758   91.8692   11.5505 C.ar    1  UNL1        0.1202
     13 N          65.8789   92.5138   12.1728 N.ar    1  UNL1       -0.1946
     14 C          65.9703   92.0481   13.5957 C.ar    1  UNL1        0.2924
     15 O          64.8238   91.1157   13.8528 O.2     1  UNL1       -0.4237
     16 C          64.0238   91.0052   12.5888 C.ar    1  UNL1        0.1662
     17 C          62.7858   90.2294   12.2491 C.ar    1  UNL1        0.0437
     18 N          67.0234   92.4450   14.5874 N.pl3   1  UNL1       -0.2636
     19 C          67.8833   91.5081   15.3829 C.3     1  UNL1        0.0951
     20 C          68.7928   92.3327   16.2449 C.3     1  UNL1        0.0233
     21 C          68.4950   93.7791   15.9821 C.3     1  UNL1        0.0233
     22 C          67.4014   93.8485   14.9577 C.3     1  UNL1        0.0951
     23 C          62.3170   85.1188   10.6453 C.3     1  UNL1        0.1075
     24 N          62.3674   83.6392   10.4035 N.am    1  UNL1       -0.2695
     25 C          63.6900   82.9345   10.3391 C.2     1  UNL1        0.4020
     26 O          64.9621   83.7094   10.5163 O.2     1  UNL1       -0.2264
     27 H          61.5325   83.1307   10.2872 H       1  UNL1        0.1528
     28 O          63.7405   81.4550   10.0974 O.3     1  UNL1       -0.4291
     29 C          63.0633   80.5157   11.0509 C.3     1  UNL1        0.2447
     30 C          62.8811   80.9076   12.4873 C.ar    1  UNL1        0.0714
     31 C          63.9743   81.0775   13.5003 C.ar    1  UNL1        0.1053
     32 N          63.3426   81.4732   14.8020 N.ar    1  UNL1       -0.2350
     33 C          61.8590   81.5479   14.5935 C.ar    1  UNL1        0.1343
     34 S          61.5738   81.1983   13.1629 S.2     1  UNL1       -0.0652
     35 C          62.0255   85.6447   12.0194 C.3     1  UNL1        0.0485
     36 C          63.1333   85.7785   13.0218 C.ar    1  UNL1       -0.0204
     37 C          63.8638   84.5587   13.4996 C.ar    1  UNL1       -0.0042
     38 C          64.9716   84.6926   14.5021 C.ar    1  UNL1       -0.0003
     39 C          65.3489   86.0462   15.0267 C.ar    1  UNL1       -0.0000
     40 C          64.6184   87.2660   14.5489 C.ar    1  UNL1       -0.0003
     41 C          63.5106   87.1323   13.5465 C.ar    1  UNL1       -0.0042
@<TRIPOS>BOND
     1     5     6    1
     2     6     4    1
     3     4     1    1
     4     1     2    1
     5     1    23    1
     6    23    35    1
     7    35    36    1
     8    36    37   ar
     9    37    38   ar
    10    38    39   ar
    11    39    40   ar
    12    40    41   ar
    13    23    24    1
    14    24    25   am
    15    25    26    2
    16    25    28    1
    17    28    29    1
    18    29    30    1
    19    30    31   ar
    20    31    32   ar
    21    32    33   ar
    22    33    34   ar
    23     6     7   am
    24     7     8    2
    25     7     9    1
    26     9    10   ar
    27    10    11   ar
    28    11    12   ar
    29    12    13   ar
    30    13    14   ar
    31    14    18    1
    32    18    19    1
    33    19    20    1
    34    20    21    1
    35    21    22    1
    36    14    15   ar
    37    15    16   ar
    38    16    17   ar
    39    41    36   ar
    40    34    30   ar
    41    17     9   ar
    42    16    12   ar
    43    22    18    1
    44     2     3    1
    45    24    27    1
@<TRIPOS>MOLECULE
*****
 41 45 0 0 0
SMALL
GASTEIGER

@<TRIPOS>ATOM
      1 C          62.4917   86.1049   10.5614 C.3     1  UNL1        0.1484
      2 O          62.4693   85.8915    9.0769 O.3     1  UNL1       -0.3810
      3 H          62.3094   86.7379    8.6309 H       1  UNL1        0.2105
      4 C          62.2825   87.4794   11.1247 C.3     1  UNL1        0.1246
      5 C          59.7617   87.5046   10.4963 C.3     1  UNL1        0.1153
      6 N          61.0329   88.2418   10.7976 N.am    1  UNL1       -0.2718
      7 C          61.0543   89.7414   10.7718 C.2     1  UNL1        0.2492
      8 O          59.8047   90.5039   10.4447 O.2     1  UNL1       -0.2699
      9 C          62.3255   90.4786   11.0731 C.ar    1  UNL1        0.0567
     10 C          63.0157   91.2565    9.9921 C.ar    1  UNL1        0.0063
     11 C          64.2868   91.9937   10.2935 C.ar    1  UNL1        0.0225
     12 C          64.8677   91.9530   11.6758 C.ar    1  UNL1        0.1202
     13 N          66.0980   92.5758   12.2662 N.ar    1  UNL1       -0.1946
     14 C          66.1682   92.1829   13.7121 C.ar    1  UNL1        0.2924
     15 O          64.9813   91.3172   14.0153 O.2     1  UNL1       -0.4237
     16 C          64.1776   91.1751   12.7568 C.ar    1  UNL1        0.1662
     17 C          62.9065   90.4379   12.4555 C.ar    1  UNL1        0.0437
     18 N          67.2375   92.5850   14.6843 N.pl3   1  UNL1       -0.2636
     19 C          67.6592   93.9895   14.9998 C.3     1  UNL1        0.0951
     20 C          68.7552   93.9256   16.0221 C.3     1  UNL1        0.0233
     21 C          69.0107   92.4818   16.3382 C.3     1  UNL1        0.0233
     22 C          68.0727   91.6532   15.5113 C.3     1  UNL1        0.0951
     23 C          62.7231   84.9440   11.4826 C.3     1  UNL1        0.1075
     24 N          63.1695   85.1843   12.8944 N.am    1  UNL1       -0.2695
     25 C          64.4160   84.5274   13.4090 C.2     1  UNL1        0.4020
     26 O          65.2161   83.6302   12.5117 O.2     1  UNL1       -0.2264
     27 H          62.6444   85.7731   13.4833 H       1  UNL1        0.1528
     28 O          64.8624   84.7676   14.8207 O.3     1  UNL1       -0.4291
     29 C          63.8750   85.2291   15.8513 C.3     1  UNL1        0.2447
     30 C          63.6348   86.6956   16.0561 C.ar    1  UNL1        0.0714
     31 C          64.0418   87.7948   15.1200 C.ar    1  UNL1        0.1053
     32 N          63.6040   89.0989   15.7182 N.ar    1  UNL1       -0.2350
     33 C          62.9265   88.8055   17.0240 C.ar    1  UNL1        0.1343
     34 S          62.9456   87.3203   17.2328 S.2     1  UNL1       -0.0652
     35 C          62.5082   83.5429   10.9922 C.3     1  UNL1        0.0485
     36 C          62.3981   82.4135   11.9732 C.ar    1  UNL1       -0.0204
     37 C          61.8286   82.6592   13.3389 C.ar    1  UNL1       -0.0042
     38 C          61.7185   81.5297   14.3199 C.ar    1  UNL1       -0.0003
     39 C          62.1780   80.1547   13.9351 C.ar    1  UNL1       -0.0000
     40 C          62.7476   79.9090   12.5694 C.ar    1  UNL1       -0.0003
     41 C          62.8576   81.0384   11.5884 C.ar    1  UNL1       -0.0042
@<TRIPOS>BOND
     1     5     6    1
     2     6     4    1
     3     4     1    1
     4     1     2    1
     5     1    23    1
     6    23    35    1
     7    35    36    1
     8    36    37   ar
     9    37    38   ar
    10    38    39   ar
    11    39    40   ar
    12    40    41   ar
    13    23    24    1
    14    24    25   am
    15    25    26    2
    16    25    28    1
    17    28    29    1
    18    29    30    1
    19    30    31   ar
    20    31    32   ar
    21    32    33   ar
    22    33    34   ar
    23     6     7   am
    24     7     8    2
    25     7     9    1
    26     9    10   ar
    27    10    11   ar
    28    11    12   ar
    29    12    13   ar
    30    13    14   ar
    31    14    18    1
    32    18    19    1
    33    19    20    1
    34    20    21    1
    35    21    22    1
    36    14    15   ar
    37    15    16   ar
    38    16    17   ar
    39    41    36   ar
    40    34    30   ar
    41    17     9   ar
    42    16    12   ar
    43    22    18    1
    44     2     3    1
    45    24    27    1
@<TRIPOS>MOLECULE
*****
 41 45 0 0 0
SMALL
GASTEIGER

@<TRIPOS>ATOM
      1 C          64.1396   84.4039   13.0168 C.3     1  UNL1        0.1484
      2 O          65.3984   83.6726   13.3779 O.3     1  UNL1       -0.3810
      3 H          65.7173   83.9837   14.2396 H       1  UNL1        0.2105
      4 C          63.5776   85.4354   13.9497 C.3     1  UNL1        0.1246
      5 C          62.8577   83.6104   15.6529 C.3     1  UNL1        0.1153
      6 N          63.1617   85.0449   15.3370 N.am    1  UNL1       -0.2718
      7 C          63.0498   86.0888   16.4083 C.2     1  UNL1        0.2492
      8 O          62.6339   85.6983   17.7955 O.2     1  UNL1       -0.2699
      9 C          63.3539   87.5233   16.0923 C.ar    1  UNL1        0.0567
     10 C          63.0795   88.5900   17.1106 C.ar    1  UNL1        0.0063
     11 C          63.3836   90.0244   16.7946 C.ar    1  UNL1        0.0225
     12 C          63.9620   90.3922   15.4604 C.ar    1  UNL1        0.1202
     13 N          64.3617   91.7115   14.8689 N.ar    1  UNL1       -0.1946
     14 C          64.8831   91.4602   13.4851 C.ar    1  UNL1        0.2924
     15 O          64.8056   89.9856   13.2213 O.2     1  UNL1       -0.4237
     16 C          64.2363   89.3256   14.4421 C.ar    1  UNL1        0.1662
     17 C          63.9323   87.8911   14.7581 C.ar    1  UNL1        0.0437
     18 N          65.3926   92.5007   12.5323 N.pl3   1  UNL1       -0.2636
     19 C          66.1531   93.7393   12.9035 C.3     1  UNL1        0.0951
     20 C          66.4615   94.4894   11.6416 C.3     1  UNL1        0.0233
     21 C          65.8917   93.7144   10.4907 C.3     1  UNL1        0.0233
     22 C          65.2311   92.4853   11.0412 C.3     1  UNL1        0.0951
     23 C          63.4427   84.1038   11.7229 C.3     1  UNL1        0.1075
     24 N          62.3124   84.9746   11.2603 N.am    1  UNL1       -0.2695
     25 C          62.2139   85.3720    9.8172 C.2     1  UNL1        0.4020
     26 O          63.2458   84.8985    8.8368 O.2     1  UNL1       -0.2264
     27 H          61.6351   85.2853   11.9037 H       1  UNL1        0.1528
     28 O          61.0836   86.2428    9.3546 O.3     1  UNL1       -0.4291
     29 C          61.2712   87.7280    9.2601 C.3     1  UNL1        0.2447
     30 C          61.0306   88.5924   10.4622 C.ar    1  UNL1        0.0714
     31 C          62.0427   88.9446   11.5117 C.ar    1  UNL1        0.1053
     32 N          61.3733   89.8261   12.5240 N.ar    1  UNL1       -0.2350
     33 C          59.9474   90.0188   12.1000 C.ar    1  UNL1        0.1343
     34 S          59.7356   89.2563   10.8258 S.2     1  UNL1       -0.0652
     35 C          63.8761   82.9328   10.8917 C.3     1  UNL1        0.0485
     36 C          63.3781   81.5561   11.2180 C.ar    1  UNL1       -0.0204
     37 C          62.9264   81.2326   12.6113 C.ar    1  UNL1       -0.0042
     38 C          62.4283   79.8558   12.9377 C.ar    1  UNL1       -0.0003
     39 C          62.3819   78.8026   11.8707 C.ar    1  UNL1       -0.0000
     40 C          62.8336   79.1261   10.4774 C.ar    1  UNL1       -0.0003
     41 C          63.3316   80.5028   10.1510 C.ar    1  UNL1       -0.0042
@<TRIPOS>BOND
     1     5     6    1
     2     6     4    1
     3     4     1    1
     4     1     2    1
     5     1    23    1
     6    23    35    1
     7    35    36    1
     8    36    37   ar
     9    37    38   ar
    10    38    39   ar
    11    39    40   ar
    12    40    41   ar
    13    23    24    1
    14    24    25   am
    15    25    26    2
    16    25    28    1
    17    28    29    1
    18    29    30    1
    19    30    31   ar
    20    31    32   ar
    21    32    33   ar
    22    33    34   ar
    23     6     7   am
    24     7     8    2
    25     7     9    1
    26     9    10   ar
    27    10    11   ar
    28    11    12   ar
    29    12    13   ar
    30    13    14   ar
    31    14    18    1
    32    18    19    1
    33    19    20    1
    34    20    21    1
    35    21    22    1
    36    14    15   ar
    37    15    16   ar
    38    16    17   ar
    39    41    36   ar
    40    34    30   ar
    41    17     9   ar
    42    16    12   ar
    43    22    18    1
    44     2     3    1
    45    24    27    1
