@<TRIPOS>MOLECULE
*****
 44 48 0 0 0
SMALL
GASTEIGER

@<TRIPOS>ATOM
      1 C          60.6374   89.4425   10.8252 C.3     1  UNL1        0.1443
      2 O          59.8806   89.0990   12.0739 O.3     1  UNL1       -0.3813
      3 H          60.2028   89.6453   12.8079 H       1  UNL1        0.2105
      4 C          60.3265   88.7330    9.5407 C.3     1  UNL1        0.1041
      5 C          59.3468   89.0579    7.1565 C.2     1  UNL1        0.2527
      6 O          58.4858   87.8440    7.3449 O.2     1  UNL1       -0.2724
      7 N          60.2671   89.5023    8.2544 N.am    1  UNL1       -0.3012
      8 H          60.8321   90.2990    8.1307 H       1  UNL1        0.1495
      9 C          59.2874   89.8272    5.8701 C.3     1  UNL1        0.2269
     10 C          58.5410   91.9865    4.6330 C.3     1  UNL1        0.1748
     11 O          58.3426   90.9840    5.7310 O.3     1  UNL1       -0.3418
     12 C          60.0749   87.2543    9.5425 C.3     1  UNL1        0.0484
     13 C          61.2116   86.3004    9.7616 C.ar    1  UNL1       -0.0203
     14 C          62.0268   85.8247    8.5958 C.ar    1  UNL1       -0.0042
     15 C          63.1635   84.8708    8.8149 C.ar    1  UNL1       -0.0002
     16 C          63.4850   84.3926   10.1998 C.ar    1  UNL1        0.0046
     17 C          62.6698   84.8684   11.3657 C.ar    1  UNL1        0.0533
     18 C          61.5331   85.8223   11.1466 C.ar    1  UNL1        0.0004
     19 C          62.9913   84.3902   12.7506 C.ar    1  UNL1        0.2298
     20 N          64.0746   83.4203   13.1191 N.ar    1  UNL1       -0.2065
     21 C          64.0388   83.2287   14.6064 C.ar    1  UNL1        0.1427
     22 C          62.9335   84.0801   15.1570 C.ar    1  UNL1        0.2021
     23 O          62.2861   84.7980   14.0100 O.2     1  UNL1       -0.4314
     24 C          61.7052   90.4954   10.8611 C.3     1  UNL1        0.1001
     25 N          63.0983   90.1366   11.2858 N.3     1  UNL1       -0.2928
     26 H          63.7281   90.5107   10.5759 H       1  UNL1        0.1236
     27 C          63.6199   90.5987   12.6142 C.3     1  UNL1        0.0849
     28 C          63.1484   89.9385   13.8758 C.3     1  UNL1        0.0604
     29 C          63.6699   90.4005   15.2042 C.3     1  UNL1        0.1363
     30 C          62.7182   89.2868   15.5268 C.3     1  UNL1        0.0402
     31 C          63.0031   89.4667   16.9885 C.3     1  UNL1        0.0072
     32 C          63.9548   90.5804   16.6659 C.3     1  UNL1        0.0402
     33 O          64.6629   91.5227   15.2709 O.3     1  UNL1       -0.4676
     34 C          65.1343   92.1830   14.0092 C.ar    1  UNL1        0.2216
     35 N          66.1273   93.3053   14.0760 N.ar    1  UNL1       -0.2107
     36 C          66.5988   93.9656   12.8143 C.ar    1  UNL1        0.0977
     37 C          66.0773   93.5035   11.4859 C.ar    1  UNL1       -0.0031
     38 C          65.0843   92.3812   11.4192 C.ar    1  UNL1       -0.0011
     39 C          64.6128   91.7210   12.6809 C.ar    1  UNL1        0.0449
     40 C          66.5487   94.1638   10.2242 C.3     1  UNL1        0.0279
     41 C          67.6006   93.5057    9.3813 C.3     1  UNL1        0.0041
     42 C          67.5375   94.6478    8.4110 C.3     1  UNL1        0.0003
     43 C          67.6638   92.3636   10.3516 C.3     1  UNL1        0.0003
     44 C          68.6525   92.8477    8.5383 C.3     1  UNL1        0.0003
@<TRIPOS>BOND
     1    10    11    1
     2    11     9    1
     3     9     5    1
     4     5     6    2
     5     5     7   am
     6     7     4    1
     7     4    12    1
     8    12    13    1
     9    13    14   ar
    10    14    15   ar
    11    15    16   ar
    12    16    17   ar
    13    17    19    1
    14    19    20   ar
    15    20    21   ar
    16    21    22   ar
    17    22    23   ar
    18    17    18   ar
    19     4     1    1
    20     1     2    1
    21     1    24    1
    22    24    25    1
    23    27    25    1
    24    27    28    1
    25    28    29    1
    26    29    30    1
    27    30    31    1
    28    31    32    1
    29    29    33    1
    30    33    34    1
    31    34    35   ar
    32    35    36   ar
    33    36    37   ar
    34    37    40    1
    35    40    41    1
    36    41    42    1
    37    41    43    1
    38    41    44    1
    39    37    38   ar
    40    38    39   ar
    41    18    13   ar
    42    39    27    1
    43    23    19   ar
    44    32    29    1
    45    39    34   ar
    46     7     8    1
    47     2     3    1
    48    25    26    1
@<TRIPOS>MOLECULE
*****
 44 48 0 0 0
SMALL
GASTEIGER

@<TRIPOS>ATOM
      1 C          60.7193   89.5930   11.0053 C.3     1  UNL1        0.1443
      2 O          60.0937   89.2093   12.3135 O.3     1  UNL1       -0.3813
      3 H          60.4117   89.8040   13.0108 H       1  UNL1        0.2105
      4 C          60.3889   88.8226    9.7614 C.3     1  UNL1        0.1041
      5 C          59.4198   89.0418    7.3609 C.2     1  UNL1        0.2527
      6 O          58.5259   87.8640    7.6142 O.2     1  UNL1       -0.2724
      7 N          60.3512   89.5211    8.4345 N.am    1  UNL1       -0.3012
      8 H          60.9378   90.2940    8.2682 H       1  UNL1        0.1495
      9 C          59.3821   89.7402    6.0339 C.3     1  UNL1        0.2269
     10 C          58.3606   91.7802    4.7909 C.3     1  UNL1        0.1748
     11 O          58.1886   90.5660    5.6546 O.3     1  UNL1       -0.3418
     12 C          60.0962   87.3539    9.8445 C.3     1  UNL1        0.0484
     13 C          61.2119   86.3587    9.7227 C.ar    1  UNL1       -0.0203
     14 C          61.8842   86.1440    8.3992 C.ar    1  UNL1       -0.0042
     15 C          62.9999   85.1488    8.2774 C.ar    1  UNL1       -0.0002
     16 C          63.4433   84.3684    9.4792 C.ar    1  UNL1        0.0046
     17 C          62.7710   84.5831   10.8028 C.ar    1  UNL1        0.0533
     18 C          61.6553   85.5782   10.9246 C.ar    1  UNL1        0.0004
     19 C          63.2144   83.8026   12.0046 C.ar    1  UNL1        0.2298
     20 N          63.1296   82.3142   12.1696 N.ar    1  UNL1       -0.2065
     21 C          63.6832   81.9652   13.5194 C.ar    1  UNL1        0.1427
     22 C          64.1101   83.2380   14.1884 C.ar    1  UNL1        0.2021
     23 O          63.8203   84.3736   13.2522 O.2     1  UNL1       -0.4314
     24 C          61.6753   90.7472   10.9411 C.3     1  UNL1        0.1001
     25 N          63.1532   90.4951   10.8945 N.3     1  UNL1       -0.2928
     26 H          63.4101   90.4313    9.9094 H       1  UNL1        0.1236
     27 C          64.1008   91.4711   11.5268 C.3     1  UNL1        0.0849
     28 C          64.8095   92.4851   10.6787 C.3     1  UNL1        0.0604
     29 C          65.7571   93.4610   11.3109 C.3     1  UNL1        0.1363
     30 C          65.7739   93.7953    9.8487 C.3     1  UNL1        0.0402
     31 C          66.7595   94.8952   10.1114 C.3     1  UNL1        0.0072
     32 C          66.7426   94.5610   11.5737 C.3     1  UNL1        0.0402
     33 O          65.9958   93.4229   12.7913 O.3     1  UNL1       -0.4676
     34 C          65.2871   92.4088   13.6394 C.ar    1  UNL1        0.2216
     35 N          65.5259   92.3706   15.1198 N.ar    1  UNL1       -0.2107
     36 C          64.8171   91.3566   15.9679 C.ar    1  UNL1        0.0977
     37 C          63.8695   90.3806   15.3356 C.ar    1  UNL1       -0.0031
     38 C          63.6308   90.4188   13.8553 C.ar    1  UNL1       -0.0011
     39 C          64.3395   91.4329   13.0071 C.ar    1  UNL1        0.0449
     40 C          63.1608   89.3666   16.1837 C.3     1  UNL1        0.0279
     41 C          63.5466   87.9193   16.1021 C.3     1  UNL1        0.0041
     42 C          64.2849   88.1882   14.8244 C.3     1  UNL1        0.0003
     43 C          62.8083   87.6504   17.3799 C.3     1  UNL1        0.0003
     44 C          63.9324   86.4721   16.0205 C.3     1  UNL1        0.0003
@<TRIPOS>BOND
     1    10    11    1
     2    11     9    1
     3     9     5    1
     4     5     6    2
     5     5     7   am
     6     7     4    1
     7     4    12    1
     8    12    13    1
     9    13    14   ar
    10    14    15   ar
    11    15    16   ar
    12    16    17   ar
    13    17    19    1
    14    19    20   ar
    15    20    21   ar
    16    21    22   ar
    17    22    23   ar
    18    17    18   ar
    19     4     1    1
    20     1     2    1
    21     1    24    1
    22    24    25    1
    23    27    25    1
    24    27    28    1
    25    28    29    1
    26    29    30    1
    27    30    31    1
    28    31    32    1
    29    29    33    1
    30    33    34    1
    31    34    35   ar
    32    35    36   ar
    33    36    37   ar
    34    37    40    1
    35    40    41    1
    36    41    42    1
    37    41    43    1
    38    41    44    1
    39    37    38   ar
    40    38    39   ar
    41    18    13   ar
    42    39    27    1
    43    23    19   ar
    44    32    29    1
    45    39    34   ar
    46     7     8    1
    47     2     3    1
    48    25    26    1
@<TRIPOS>MOLECULE
*****
 44 48 0 0 0
SMALL
GASTEIGER

@<TRIPOS>ATOM
      1 C          60.5953   89.6522   11.7736 C.3     1  UNL1        0.1443
      2 O          59.5239   90.6961   11.8851 O.3     1  UNL1       -0.3813
      3 H          58.7071   90.3658   11.4792 H       1  UNL1        0.2105
      4 C          61.9631   89.9191   12.3284 C.3     1  UNL1        0.1041
      5 C          63.1297   89.2829   14.5609 C.2     1  UNL1        0.2527
      6 O          63.9280   88.2340   13.8449 O.2     1  UNL1       -0.2724
      7 N          62.1473   90.1254   13.8027 N.am    1  UNL1       -0.3012
      8 H          61.6234   90.8138   14.2727 H       1  UNL1        0.1495
      9 C          63.3139   89.4891   16.0352 C.3     1  UNL1        0.2269
     10 C          64.2806   91.8694   16.4227 C.3     1  UNL1        0.1748
     11 O          63.1857   90.8637   16.6220 O.3     1  UNL1       -0.3418
     12 C          63.1466   89.9797   11.4090 C.3     1  UNL1        0.0484
     13 C          64.1024   91.1328   11.4917 C.ar    1  UNL1       -0.0203
     14 C          64.1782   92.1261   10.3703 C.ar    1  UNL1       -0.0042
     15 C          65.1340   93.2792   10.4530 C.ar    1  UNL1       -0.0002
     16 C          66.0139   93.4391   11.6572 C.ar    1  UNL1        0.0046
     17 C          65.9381   92.4458   12.7788 C.ar    1  UNL1        0.0533
     18 C          64.9823   91.2927   12.6960 C.ar    1  UNL1        0.0004
     19 C          66.8179   92.6058   13.9830 C.ar    1  UNL1        0.2298
     20 N          67.3021   93.9052   14.5548 N.ar    1  UNL1       -0.2065
     21 C          68.1515   93.5969   15.7521 C.ar    1  UNL1        0.1427
     22 C          68.1924   92.1069   15.9201 C.ar    1  UNL1        0.2021
     23 O          67.3682   91.4944   14.8267 O.2     1  UNL1       -0.4314
     24 C          60.2988   88.3414   11.1073 C.3     1  UNL1        0.1001
     25 N          60.9074   87.0766   11.6363 N.3     1  UNL1       -0.2928
     26 H          60.1533   86.5482   12.0751 H       1  UNL1        0.1236
     27 C          61.6101   86.1351   10.7036 C.3     1  UNL1        0.0849
     28 C          61.2732   86.1368    9.2419 C.3     1  UNL1        0.0604
     29 C          61.9759   85.1953    8.3092 C.3     1  UNL1        0.1363
     30 C          61.0264   85.9659    7.4404 C.3     1  UNL1        0.0402
     31 C          61.4995   85.1977    6.2420 C.3     1  UNL1        0.0072
     32 C          62.4490   84.4271    7.1108 C.3     1  UNL1        0.0402
     33 O          63.0154   84.2523    8.8382 O.3     1  UNL1       -0.4676
     34 C          63.3523   84.2506   10.2999 C.ar    1  UNL1        0.2216
     35 N          64.3919   83.3075   10.8289 N.ar    1  UNL1       -0.2107
     36 C          64.7288   83.3058   12.2906 C.ar    1  UNL1        0.0977
     37 C          64.0261   84.2473   13.2233 C.ar    1  UNL1       -0.0031
     38 C          62.9865   85.1904   12.6943 C.ar    1  UNL1       -0.0011
     39 C          62.6497   85.1920   11.2326 C.ar    1  UNL1        0.0449
     40 C          64.3630   84.2456   14.6850 C.3     1  UNL1        0.0279
     41 C          63.3674   84.7551   15.6846 C.3     1  UNL1        0.0041
     42 C          62.4807   83.5790   15.4010 C.3     1  UNL1        0.0003
     43 C          64.2541   85.9314   15.9682 C.3     1  UNL1        0.0003
     44 C          62.3718   85.2646   16.6843 C.3     1  UNL1        0.0003
@<TRIPOS>BOND
     1    10    11    1
     2    11     9    1
     3     9     5    1
     4     5     6    2
     5     5     7   am
     6     7     4    1
     7     4    12    1
     8    12    13    1
     9    13    14   ar
    10    14    15   ar
    11    15    16   ar
    12    16    17   ar
    13    17    19    1
    14    19    20   ar
    15    20    21   ar
    16    21    22   ar
    17    22    23   ar
    18    17    18   ar
    19     4     1    1
    20     1     2    1
    21     1    24    1
    22    24    25    1
    23    27    25    1
    24    27    28    1
    25    28    29    1
    26    29    30    1
    27    30    31    1
    28    31    32    1
    29    29    33    1
    30    33    34    1
    31    34    35   ar
    32    35    36   ar
    33    36    37   ar
    34    37    40    1
    35    40    41    1
    36    41    42    1
    37    41    43    1
    38    41    44    1
    39    37    38   ar
    40    38    39   ar
    41    18    13   ar
    42    39    27    1
    43    23    19   ar
    44    32    29    1
    45    39    34   ar
    46     7     8    1
    47     2     3    1
    48    25    26    1
@<TRIPOS>MOLECULE
*****
 44 48 0 0 0
SMALL
GASTEIGER

@<TRIPOS>ATOM
      1 C          60.0404   89.1670   10.7473 C.3     1  UNL1        0.1443
      2 O          59.3923   90.2283   11.5861 O.3     1  UNL1       -0.3813
      3 H          58.8367   89.8110   12.2629 H       1  UNL1        0.2105
      4 C          60.9553   89.5540    9.6233 C.3     1  UNL1        0.1041
      5 C          59.5055   89.3026    7.4821 C.2     1  UNL1        0.2527
      6 O          59.1878   87.8870    7.8634 O.2     1  UNL1       -0.2724
      7 N          60.3892   90.1360    8.3621 N.am    1  UNL1       -0.3012
      8 H          60.5977   91.0651    8.1118 H       1  UNL1        0.1495
      9 C          58.9395   89.8846    6.2208 C.3     1  UNL1        0.2269
     10 C          59.1871   91.9333    4.6423 C.3     1  UNL1        0.1748
     11 O          59.7929   90.7565    5.3482 O.3     1  UNL1       -0.3418
     12 C          62.4361   89.3589    9.7607 C.3     1  UNL1        0.0484
     13 C          63.2042   90.1427   10.7833 C.ar    1  UNL1       -0.0203
     14 C          63.1607   89.7374   12.2268 C.ar    1  UNL1       -0.0042
     15 C          63.9288   90.5211   13.2494 C.ar    1  UNL1       -0.0002
     16 C          64.7404   91.7103   12.8285 C.ar    1  UNL1        0.0046
     17 C          64.7839   92.1157   11.3849 C.ar    1  UNL1        0.0533
     18 C          64.0158   91.3319   10.3623 C.ar    1  UNL1        0.0004
     19 C          65.5955   93.3049   10.9640 C.ar    1  UNL1        0.2298
     20 N          65.8269   94.5458   11.7742 N.ar    1  UNL1       -0.2065
     21 C          66.6926   95.4698   10.9700 C.ar    1  UNL1        0.1427
     22 C          66.9961   94.7999    9.6627 C.ar    1  UNL1        0.2021
     23 O          66.3181   93.4619    9.6590 O.2     1  UNL1       -0.4314
     24 C          59.7738   87.7186   11.0325 C.3     1  UNL1        0.1001
     25 N          60.8536   86.8585   11.6190 N.3     1  UNL1       -0.2928
     26 H          60.4108   86.2707   12.3252 H       1  UNL1        0.1236
     27 C          61.6498   85.9463   10.7335 C.3     1  UNL1        0.0849
     28 C          61.4040   85.9348    9.2539 C.3     1  UNL1        0.0604
     29 C          62.2001   85.0226    8.3684 C.3     1  UNL1        0.1363
     30 C          61.2758   85.7546    7.4410 C.3     1  UNL1        0.0402
     31 C          61.8524   85.0063    6.2757 C.3     1  UNL1        0.0072
     32 C          62.7767   84.2744    7.2031 C.3     1  UNL1        0.0402
     33 O          63.2421   84.1220    8.9626 O.3     1  UNL1       -0.4676
     34 C          63.4879   84.1336   10.4422 C.ar    1  UNL1        0.2216
     35 N          64.5300   83.2329   11.0364 N.ar    1  UNL1       -0.2107
     36 C          64.7759   83.2444   12.5161 C.ar    1  UNL1        0.0977
     37 C          63.9797   84.1567   13.4016 C.ar    1  UNL1       -0.0031
     38 C          62.9377   85.0573   12.8074 C.ar    1  UNL1       -0.0011
     39 C          62.6918   85.0457   11.3277 C.ar    1  UNL1        0.0449
     40 C          64.2255   84.1682   14.8813 C.3     1  UNL1        0.0279
     41 C          63.8064   85.3518   15.7020 C.3     1  UNL1        0.0041
     42 C          64.9910   86.1212   15.1972 C.3     1  UNL1        0.0003
     43 C          62.6218   84.5824   16.2068 C.3     1  UNL1        0.0003
     44 C          63.3874   86.5354   16.5226 C.3     1  UNL1        0.0003
@<TRIPOS>BOND
     1    10    11    1
     2    11     9    1
     3     9     5    1
     4     5     6    2
     5     5     7   am
     6     7     4    1
     7     4    12    1
     8    12    13    1
     9    13    14   ar
    10    14    15   ar
    11    15    16   ar
    12    16    17   ar
    13    17    19    1
    14    19    20   ar
    15    20    21   ar
    16    21    22   ar
    17    22    23   ar
    18    17    18   ar
    19     4     1    1
    20     1     2    1
    21     1    24    1
    22    24    25    1
    23    27    25    1
    24    27    28    1
    25    28    29    1
    26    29    30    1
    27    30    31    1
    28    31    32    1
    29    29    33    1
    30    33    34    1
    31    34    35   ar
    32    35    36   ar
    33    36    37   ar
    34    37    40    1
    35    40    41    1
    36    41    42    1
    37    41    43    1
    38    41    44    1
    39    37    38   ar
    40    38    39   ar
    41    18    13   ar
    42    39    27    1
    43    23    19   ar
    44    32    29    1
    45    39    34   ar
    46     7     8    1
    47     2     3    1
    48    25    26    1
@<TRIPOS>MOLECULE
*****
 44 48 0 0 0
SMALL
GASTEIGER

@<TRIPOS>ATOM
      1 C          60.0164   89.0449   10.6984 C.3     1  UNL1        0.1443
      2 O          59.3521   90.0761   11.5618 O.3     1  UNL1       -0.3813
      3 H          58.8237   89.6342   12.2448 H       1  UNL1        0.2105
      4 C          60.8957   89.4727    9.5610 C.3     1  UNL1        0.1041
      5 C          59.4081   89.1642    7.4534 C.2     1  UNL1        0.2527
      6 O          59.1420   87.7421    7.8494 O.2     1  UNL1       -0.2724
      7 N          60.2849   90.0295    8.3092 N.am    1  UNL1       -0.3012
      8 H          60.4596   90.9629    8.0493 H       1  UNL1        0.1495
      9 C          58.7974   89.7210    6.2016 C.3     1  UNL1        0.2269
     10 C          58.8938   91.8957    4.7833 C.3     1  UNL1        0.1748
     11 O          59.5724   90.6858    5.3539 O.3     1  UNL1       -0.3418
     12 C          62.3857   89.3438    9.6754 C.3     1  UNL1        0.0484
     13 C          63.1503   90.2604   10.5837 C.ar    1  UNL1       -0.0203
     14 C          64.0069   91.3471   10.0047 C.ar    1  UNL1       -0.0042
     15 C          64.7715   92.2637   10.9130 C.ar    1  UNL1       -0.0002
     16 C          64.6796   92.0936   12.4005 C.ar    1  UNL1        0.0046
     17 C          63.8230   91.0069   12.9797 C.ar    1  UNL1        0.0533
     18 C          63.0583   90.0903   12.0713 C.ar    1  UNL1        0.0004
     19 C          63.7310   90.8368   14.4671 C.ar    1  UNL1        0.2298
     20 N          63.0714   89.6969   15.1851 N.ar    1  UNL1       -0.2065
     21 C          63.2153   89.9324   16.6595 C.ar    1  UNL1        0.1427
     22 C          63.9638   91.2178   16.8527 C.ar    1  UNL1        0.2021
     23 O          64.2825   91.7767   15.4977 O.2     1  UNL1       -0.4314
     24 C          59.8012   87.5859   10.9724 C.3     1  UNL1        0.1001
     25 N          60.9178   86.7553   11.5322 N.3     1  UNL1       -0.2928
     26 H          60.5103   86.1641   12.2566 H       1  UNL1        0.1236
     27 C          61.7067   85.8533   10.6300 C.3     1  UNL1        0.0849
     28 C          61.4551   85.8650    9.1513 C.3     1  UNL1        0.0604
     29 C          62.2439   84.9630    8.2491 C.3     1  UNL1        0.1363
     30 C          61.3190   85.7126    7.3365 C.3     1  UNL1        0.0402
     31 C          61.8880   84.9796    6.1578 C.3     1  UNL1        0.0072
     32 C          62.8128   84.2300    7.0705 C.3     1  UNL1        0.0402
     33 O          63.2844   84.0493    8.8255 O.3     1  UNL1       -0.4676
     34 C          63.5361   84.0376   10.3042 C.ar    1  UNL1        0.2216
     35 N          64.5767   83.1238   10.8807 N.ar    1  UNL1       -0.2107
     36 C          64.8284   83.1121   12.3594 C.ar    1  UNL1        0.0977
     37 C          64.0395   84.0141   13.2616 C.ar    1  UNL1       -0.0031
     38 C          62.9989   84.9278   12.6851 C.ar    1  UNL1       -0.0011
     39 C          62.7473   84.9396   11.2065 C.ar    1  UNL1        0.0449
     40 C          64.2912   84.0024   14.7403 C.3     1  UNL1        0.0279
     41 C          63.8348   85.1528   15.5879 C.3     1  UNL1        0.0041
     42 C          62.6480   84.3522   16.0355 C.3     1  UNL1        0.0003
     43 C          65.0217   85.9535   15.1403 C.3     1  UNL1        0.0003
     44 C          63.3784   86.3031   16.4355 C.3     1  UNL1        0.0003
@<TRIPOS>BOND
     1    10    11    1
     2    11     9    1
     3     9     5    1
     4     5     6    2
     5     5     7   am
     6     7     4    1
     7     4    12    1
     8    12    13    1
     9    13    14   ar
    10    14    15   ar
    11    15    16   ar
    12    16    17   ar
    13    17    19    1
    14    19    20   ar
    15    20    21   ar
    16    21    22   ar
    17    22    23   ar
    18    17    18   ar
    19     4     1    1
    20     1     2    1
    21     1    24    1
    22    24    25    1
    23    27    25    1
    24    27    28    1
    25    28    29    1
    26    29    30    1
    27    30    31    1
    28    31    32    1
    29    29    33    1
    30    33    34    1
    31    34    35   ar
    32    35    36   ar
    33    36    37   ar
    34    37    40    1
    35    40    41    1
    36    41    42    1
    37    41    43    1
    38    41    44    1
    39    37    38   ar
    40    38    39   ar
    41    18    13   ar
    42    39    27    1
    43    23    19   ar
    44    32    29    1
    45    39    34   ar
    46     7     8    1
    47     2     3    1
    48    25    26    1
@<TRIPOS>MOLECULE
*****
 44 48 0 0 0
SMALL
GASTEIGER

@<TRIPOS>ATOM
      1 C          60.8423   89.7133   11.6647 C.3     1  UNL1        0.1443
      2 O          59.5696   90.4467   11.9684 O.3     1  UNL1       -0.3813
      3 H          58.8184   89.9582   11.5968 H       1  UNL1        0.2105
      4 C          62.1560   90.2649   12.1337 C.3     1  UNL1        0.1041
      5 C          63.2543   89.3302   14.2947 C.2     1  UNL1        0.2527
      6 O          63.7864   88.1618   13.5189 O.2     1  UNL1       -0.2724
      7 N          62.4391   90.3817   13.6021 N.am    1  UNL1       -0.3012
      8 H          62.0899   91.1486   14.1112 H       1  UNL1        0.1495
      9 C          63.5374   89.4471   15.7631 C.3     1  UNL1        0.2269
     10 C          64.3251   91.7928   16.5552 C.3     1  UNL1        0.1748
     11 O          63.2631   90.7361   16.4795 O.3     1  UNL1       -0.3418
     12 C          63.1865   90.6996   11.1342 C.3     1  UNL1        0.0484
     13 C          64.2859   91.6324   11.5480 C.ar    1  UNL1       -0.0203
     14 C          64.9622   91.4528   12.8747 C.ar    1  UNL1       -0.0042
     15 C          66.0617   92.3856   13.2885 C.ar    1  UNL1       -0.0002
     16 C          66.4848   93.4980   12.3755 C.ar    1  UNL1        0.0046
     17 C          65.8085   93.6776   11.0486 C.ar    1  UNL1        0.0533
     18 C          64.7091   92.7448   10.6349 C.ar    1  UNL1        0.0004
     19 C          66.2316   94.7899   10.1357 C.ar    1  UNL1        0.2298
     20 N          67.5310   94.8734    9.3911 N.ar    1  UNL1       -0.2065
     21 C          67.5321   96.1491    8.6022 C.ar    1  UNL1        0.1427
     22 C          66.2334   96.8541    8.8592 C.ar    1  UNL1        0.2021
     23 O          65.4296   96.0141    9.8069 O.2     1  UNL1       -0.4314
     24 C          60.8013   88.4282   10.8920 C.3     1  UNL1        0.1001
     25 N          61.3644   87.1740   11.4919 N.3     1  UNL1       -0.2928
     26 H          60.6041   86.7246   12.0020 H       1  UNL1        0.1236
     27 C          61.9710   86.1259   10.6067 C.3     1  UNL1        0.0849
     28 C          61.6550   86.1080    9.1405 C.3     1  UNL1        0.0604
     29 C          62.2615   85.0599    8.2553 C.3     1  UNL1        0.1363
     30 C          61.4137   85.8957    7.3427 C.3     1  UNL1        0.0402
     31 C          61.8145   85.0345    6.1817 C.3     1  UNL1        0.0072
     32 C          62.6623   84.1988    7.0943 C.3     1  UNL1        0.0402
     33 O          63.1842   84.0298    8.8363 O.3     1  UNL1       -0.4676
     34 C          63.5002   84.0478   10.3025 C.ar    1  UNL1        0.2216
     35 N          64.4229   83.0176   10.8835 N.ar    1  UNL1       -0.2107
     36 C          64.7390   83.0356   12.3497 C.ar    1  UNL1        0.0977
     37 C          64.1324   84.0837   13.2349 C.ar    1  UNL1       -0.0031
     38 C          63.2097   85.1138   12.6539 C.ar    1  UNL1       -0.0011
     39 C          62.8937   85.0958   11.1877 C.ar    1  UNL1        0.0449
     40 C          64.4484   84.1017   14.7011 C.3     1  UNL1        0.0279
     41 C          63.5605   84.8501   15.6507 C.3     1  UNL1        0.0041
     42 C          62.5563   83.7377   15.5884 C.3     1  UNL1        0.0003
     43 C          64.5649   85.9626   15.7129 C.3     1  UNL1        0.0003
     44 C          62.6727   85.5985   16.6001 C.3     1  UNL1        0.0003
@<TRIPOS>BOND
     1    10    11    1
     2    11     9    1
     3     9     5    1
     4     5     6    2
     5     5     7   am
     6     7     4    1
     7     4    12    1
     8    12    13    1
     9    13    14   ar
    10    14    15   ar
    11    15    16   ar
    12    16    17   ar
    13    17    19    1
    14    19    20   ar
    15    20    21   ar
    16    21    22   ar
    17    22    23   ar
    18    17    18   ar
    19     4     1    1
    20     1     2    1
    21     1    24    1
    22    24    25    1
    23    27    25    1
    24    27    28    1
    25    28    29    1
    26    29    30    1
    27    30    31    1
    28    31    32    1
    29    29    33    1
    30    33    34    1
    31    34    35   ar
    32    35    36   ar
    33    36    37   ar
    34    37    40    1
    35    40    41    1
    36    41    42    1
    37    41    43    1
    38    41    44    1
    39    37    38   ar
    40    38    39   ar
    41    18    13   ar
    42    39    27    1
    43    23    19   ar
    44    32    29    1
    45    39    34   ar
    46     7     8    1
    47     2     3    1
    48    25    26    1
@<TRIPOS>MOLECULE
*****
 44 48 0 0 0
SMALL
GASTEIGER

@<TRIPOS>ATOM
      1 C          61.9509   89.9713   12.1495 C.3     1  UNL1        0.1443
      2 O          62.1923   90.7890   10.9153 O.3     1  UNL1       -0.3813
      3 H          61.3729   90.8452   10.3993 H       1  UNL1        0.2105
      4 C          63.0680   89.7331   13.1217 C.3     1  UNL1        0.1041
      5 C          63.9057   87.7728   14.6067 C.2     1  UNL1        0.2527
      6 O          63.5340   88.5460   15.8372 O.2     1  UNL1       -0.2724
      7 N          63.6727   88.3663   13.2490 N.am    1  UNL1       -0.3012
      8 H          63.9167   87.8588   12.4415 H       1  UNL1        0.1495
      9 C          64.5105   86.4060   14.7341 C.3     1  UNL1        0.2269
     10 C          62.8573   85.2718   16.3865 C.3     1  UNL1        0.1748
     11 O          64.2622   85.5879   15.9666 O.3     1  UNL1       -0.3418
     12 C          63.5803   90.8616   13.9666 C.3     1  UNL1        0.0484
     13 C          64.9972   91.3296   13.8138 C.ar    1  UNL1       -0.0203
     14 C          65.9802   91.1210   14.9275 C.ar    1  UNL1       -0.0042
     15 C          67.3971   91.5889   14.7747 C.ar    1  UNL1       -0.0002
     16 C          67.8311   92.2655   13.5083 C.ar    1  UNL1        0.0046
     17 C          66.8481   92.4741   12.3946 C.ar    1  UNL1        0.0533
     18 C          65.4312   92.0062   12.5473 C.ar    1  UNL1        0.0004
     19 C          67.2821   93.1507   11.1281 C.ar    1  UNL1        0.2298
     20 N          66.9335   94.5488   10.7113 N.ar    1  UNL1       -0.2065
     21 C          67.5768   94.8102    9.3818 C.ar    1  UNL1        0.1427
     22 C          68.3230   93.5736    8.9769 C.ar    1  UNL1        0.2021
     23 O          68.1409   92.5480   10.0562 O.2     1  UNL1       -0.4314
     24 C          60.5923   89.3919   12.4114 C.3     1  UNL1        0.1001
     25 N          60.2435   88.0308   11.8863 N.3     1  UNL1       -0.2928
     26 H          59.2498   87.8905   12.0690 H       1  UNL1        0.1236
     27 C          60.4679   87.7050   10.4393 C.3     1  UNL1        0.0849
     28 C          59.7907   88.5155    9.3743 C.3     1  UNL1        0.0604
     29 C          60.0150   88.1897    7.9274 C.3     1  UNL1        0.1363
     30 C          59.0765   89.3598    7.9208 C.3     1  UNL1        0.0402
     31 C          59.0573   89.3360    6.4211 C.3     1  UNL1        0.0072
     32 C          59.9958   88.1659    6.4277 C.3     1  UNL1        0.0402
     33 O          60.9166   87.0533    7.5456 O.3     1  UNL1       -0.4676
     34 C          61.5938   86.2428    8.6107 C.ar    1  UNL1        0.2216
     35 N          62.4954   85.1063    8.2289 N.ar    1  UNL1       -0.2107
     36 C          63.1726   84.2958    9.2939 C.ar    1  UNL1        0.0977
     37 C          62.9482   84.6216   10.7409 C.ar    1  UNL1       -0.0031
     38 C          62.0466   85.7580   11.1226 C.ar    1  UNL1       -0.0011
     39 C          61.3694   86.5686   10.0576 C.ar    1  UNL1        0.0449
     40 C          63.6254   83.8111   11.8059 C.3     1  UNL1        0.0279
     41 C          63.0197   82.5169   12.2624 C.3     1  UNL1        0.0041
     42 C          63.4817   81.8548   10.9983 C.3     1  UNL1        0.0003
     43 C          62.5576   83.1791   13.5266 C.3     1  UNL1        0.0003
     44 C          62.4140   81.2228   12.7188 C.3     1  UNL1        0.0003
@<TRIPOS>BOND
     1    10    11    1
     2    11     9    1
     3     9     5    1
     4     5     6    2
     5     5     7   am
     6     7     4    1
     7     4    12    1
     8    12    13    1
     9    13    14   ar
    10    14    15   ar
    11    15    16   ar
    12    16    17   ar
    13    17    19    1
    14    19    20   ar
    15    20    21   ar
    16    21    22   ar
    17    22    23   ar
    18    17    18   ar
    19     4     1    1
    20     1     2    1
    21     1    24    1
    22    24    25    1
    23    27    25    1
    24    27    28    1
    25    28    29    1
    26    29    30    1
    27    30    31    1
    28    31    32    1
    29    29    33    1
    30    33    34    1
    31    34    35   ar
    32    35    36   ar
    33    36    37   ar
    34    37    40    1
    35    40    41    1
    36    41    42    1
    37    41    43    1
    38    41    44    1
    39    37    38   ar
    40    38    39   ar
    41    18    13   ar
    42    39    27    1
    43    23    19   ar
    44    32    29    1
    45    39    34   ar
    46     7     8    1
    47     2     3    1
    48    25    26    1
@<TRIPOS>MOLECULE
*****
 44 48 0 0 0
SMALL
GASTEIGER

@<TRIPOS>ATOM
      1 C          60.9562   89.5673    9.6232 C.3     1  UNL1        0.1443
      2 O          60.2764   90.0590    8.3798 O.3     1  UNL1       -0.3813
      3 H          60.6390   90.9245    8.1338 H       1  UNL1        0.2105
      4 C          60.5731   88.2427   10.2136 C.3     1  UNL1        0.1041
      5 C          59.2782   89.3276   12.1875 C.2     1  UNL1        0.2527
      6 O          59.0429   90.5554   11.3584 O.2     1  UNL1       -0.2724
      7 N          60.0433   88.1713   11.6151 N.am    1  UNL1       -0.3012
      8 H          60.1977   87.3656   12.1593 H       1  UNL1        0.1495
      9 C          58.7484   89.2562   13.5890 C.3     1  UNL1        0.2269
     10 C          56.4169   88.1639   13.2408 C.3     1  UNL1        0.1748
     11 O          57.7348   88.2129   13.9554 O.3     1  UNL1       -0.3418
     12 C          60.7197   86.9895    9.4025 C.3     1  UNL1        0.0484
     13 C          61.7331   85.9559    9.7958 C.ar    1  UNL1       -0.0203
     14 C          62.5628   85.2808    8.7443 C.ar    1  UNL1       -0.0042
     15 C          63.5762   84.2471    9.1376 C.ar    1  UNL1       -0.0002
     16 C          63.7598   83.8885   10.5824 C.ar    1  UNL1        0.0046
     17 C          62.9300   84.5636   11.6341 C.ar    1  UNL1        0.0533
     18 C          61.9167   85.5973   11.2408 C.ar    1  UNL1        0.0004
     19 C          63.1137   84.2050   13.0789 C.ar    1  UNL1        0.2298
     20 N          64.2438   83.4017   13.6512 N.ar    1  UNL1       -0.2065
     21 C          64.0280   83.2870   15.1312 C.ar    1  UNL1        0.1427
     22 C          62.7645   84.0193   15.4735 C.ar    1  UNL1        0.2021
     23 O          62.1995   84.5866   14.2051 O.2     1  UNL1       -0.4314
     24 C          62.0193   90.4002   10.2762 C.3     1  UNL1        0.1001
     25 N          63.1121   89.7394   11.0629 N.3     1  UNL1       -0.2928
     26 H          63.9169   89.6617   10.4411 H       1  UNL1        0.1236
     27 C          63.6055   90.3656   12.3336 C.3     1  UNL1        0.0849
     28 C          63.2193   89.7777   13.6585 C.3     1  UNL1        0.0604
     29 C          63.7126   90.4039   14.9292 C.3     1  UNL1        0.1363
     30 C          62.8792   89.2370   15.3695 C.3     1  UNL1        0.0402
     31 C          63.1666   89.5725   16.8030 C.3     1  UNL1        0.0072
     32 C          64.0001   90.7394   16.3627 C.3     1  UNL1        0.0402
     33 O          64.5921   91.6178   14.8749 O.3     1  UNL1       -0.4676
     34 C          64.9782   92.2056   13.5500 C.ar    1  UNL1        0.2216
     35 N          65.8577   93.4195   13.4958 N.ar    1  UNL1       -0.2107
     36 C          66.2438   94.0073   12.1709 C.ar    1  UNL1        0.0977
     37 C          65.7504   93.3812   10.9002 C.ar    1  UNL1       -0.0031
     38 C          64.8710   92.1673   10.9545 C.ar    1  UNL1       -0.0011
     39 C          64.4849   91.5795   12.2794 C.ar    1  UNL1        0.0449
     40 C          66.1366   93.9690    9.5753 C.3     1  UNL1        0.0279
     41 C          66.7591   95.3323    9.5124 C.3     1  UNL1        0.0041
     42 C          65.4411   95.9507    9.8737 C.3     1  UNL1        0.0003
     43 C          68.0771   94.7138    9.1512 C.3     1  UNL1        0.0003
     44 C          67.3815   96.6956    9.4496 C.3     1  UNL1        0.0003
@<TRIPOS>BOND
     1    10    11    1
     2    11     9    1
     3     9     5    1
     4     5     6    2
     5     5     7   am
     6     7     4    1
     7     4    12    1
     8    12    13    1
     9    13    14   ar
    10    14    15   ar
    11    15    16   ar
    12    16    17   ar
    13    17    19    1
    14    19    20   ar
    15    20    21   ar
    16    21    22   ar
    17    22    23   ar
    18    17    18   ar
    19     4     1    1
    20     1     2    1
    21     1    24    1
    22    24    25    1
    23    27    25    1
    24    27    28    1
    25    28    29    1
    26    29    30    1
    27    30    31    1
    28    31    32    1
    29    29    33    1
    30    33    34    1
    31    34    35   ar
    32    35    36   ar
    33    36    37   ar
    34    37    40    1
    35    40    41    1
    36    41    42    1
    37    41    43    1
    38    41    44    1
    39    37    38   ar
    40    38    39   ar
    41    18    13   ar
    42    39    27    1
    43    23    19   ar
    44    32    29    1
    45    39    34   ar
    46     7     8    1
    47     2     3    1
    48    25    26    1
@<TRIPOS>MOLECULE
*****
 44 48 0 0 0
SMALL
GASTEIGER

@<TRIPOS>ATOM
      1 C          60.5893   90.1950   12.0512 C.3     1  UNL1        0.1443
      2 O          60.0036   91.3057   11.2307 O.3     1  UNL1       -0.3813
      3 H          59.0691   91.1174   11.0518 H       1  UNL1        0.2105
      4 C          62.0303   90.2472   12.4643 C.3     1  UNL1        0.1041
      5 C          63.2440   89.0964   14.4524 C.2     1  UNL1        0.2527
      6 O          63.7279   88.0157   13.5315 O.2     1  UNL1       -0.2724
      7 N          62.3953   90.2121   13.9188 N.am    1  UNL1       -0.3012
      8 H          62.0777   90.9214   14.5232 H       1  UNL1        0.1495
      9 C          63.6090   89.0614   15.9069 C.3     1  UNL1        0.2269
     10 C          63.0006   86.8263   17.0836 C.3     1  UNL1        0.1748
     11 O          62.7597   88.2921   16.8749 O.3     1  UNL1       -0.3418
     12 C          63.1064   90.3345   11.4230 C.3     1  UNL1        0.0484
     13 C          64.1616   91.3960   11.5219 C.ar    1  UNL1       -0.0203
     14 C          64.3851   92.3402   10.3781 C.ar    1  UNL1       -0.0042
     15 C          65.4403   93.4017   10.4771 C.ar    1  UNL1       -0.0002
     16 C          66.2719   93.5190   11.7199 C.ar    1  UNL1        0.0046
     17 C          66.0484   92.5747   12.8638 C.ar    1  UNL1        0.0533
     18 C          64.9932   91.5132   12.7648 C.ar    1  UNL1        0.0004
     19 C          66.8800   92.6920   14.1066 C.ar    1  UNL1        0.2298
     20 N          66.3790   92.5834   15.5162 N.ar    1  UNL1       -0.2065
     21 C          67.5480   92.7627   16.4388 C.ar    1  UNL1        0.1427
     22 C          68.7715   92.9821   15.5994 C.ar    1  UNL1        0.2021
     23 O          68.3587   92.9384   14.1580 O.2     1  UNL1       -0.4314
     24 C          59.7340   89.0320   12.4585 C.3     1  UNL1        0.1001
     25 N          60.1273   87.6383   12.0673 N.3     1  UNL1       -0.2928
     26 H          59.3563   87.0279   12.3381 H       1  UNL1        0.1236
     27 C          60.4473   87.3231   10.6361 C.3     1  UNL1        0.0849
     28 C          59.7729   88.0822    9.5321 C.3     1  UNL1        0.0604
     29 C          60.0928   87.7670    8.1009 C.3     1  UNL1        0.1363
     30 C          59.0793   88.8710    8.0381 C.3     1  UNL1        0.0402
     31 C          59.1390   88.8405    6.5395 C.3     1  UNL1        0.0072
     32 C          60.1525   87.7364    6.6024 C.3     1  UNL1        0.0402
     33 O          61.0872   86.6926    7.7738 O.3     1  UNL1       -0.4676
     34 C          61.7616   85.9335    8.8779 C.ar    1  UNL1        0.2216
     35 N          62.7560   84.8592    8.5507 N.ar    1  UNL1       -0.2107
     36 C          63.4304   84.1001    9.6548 C.ar    1  UNL1        0.0977
     37 C          63.1104   84.4154   11.0860 C.ar    1  UNL1       -0.0031
     38 C          62.1161   85.4897   11.4131 C.ar    1  UNL1       -0.0011
     39 C          61.4417   86.2488   10.3090 C.ar    1  UNL1        0.0449
     40 C          63.7849   83.6563   12.1900 C.3     1  UNL1        0.0279
     41 C          62.9617   82.9529   13.2282 C.3     1  UNL1        0.0041
     42 C          62.5420   81.9373   12.2073 C.3     1  UNL1        0.0003
     43 C          63.3815   83.9685   14.2492 C.3     1  UNL1        0.0003
     44 C          62.1386   82.2495   14.2663 C.3     1  UNL1        0.0003
@<TRIPOS>BOND
     1    10    11    1
     2    11     9    1
     3     9     5    1
     4     5     6    2
     5     5     7   am
     6     7     4    1
     7     4    12    1
     8    12    13    1
     9    13    14   ar
    10    14    15   ar
    11    15    16   ar
    12    16    17   ar
    13    17    19    1
    14    19    20   ar
    15    20    21   ar
    16    21    22   ar
    17    22    23   ar
    18    17    18   ar
    19     4     1    1
    20     1     2    1
    21     1    24    1
    22    24    25    1
    23    27    25    1
    24    27    28    1
    25    28    29    1
    26    29    30    1
    27    30    31    1
    28    31    32    1
    29    29    33    1
    30    33    34    1
    31    34    35   ar
    32    35    36   ar
    33    36    37   ar
    34    37    40    1
    35    40    41    1
    36    41    42    1
    37    41    43    1
    38    41    44    1
    39    37    38   ar
    40    38    39   ar
    41    18    13   ar
    42    39    27    1
    43    23    19   ar
    44    32    29    1
    45    39    34   ar
    46     7     8    1
    47     2     3    1
    48    25    26    1
