@<TRIPOS>MOLECULE
*****
 27 30 0 0 0
SMALL
GASTEIGER

@<TRIPOS>ATOM
      1 N          62.7293   88.8814   11.3096 N.ar    1  UNL1       -0.3256
      2 C          62.8106   87.5128   11.9181 C.ar    1  UNL1        0.0367
      3 C          63.6012   87.6167   13.1886 C.ar    1  UNL1        0.0109
      4 C          64.0086   89.0495   13.3652 C.ar    1  UNL1        0.0167
      5 C          64.8006   89.7433   14.4335 C.ar    1  UNL1        0.0308
      6 C          65.0537   91.2188   14.3405 C.ar    1  UNL1        0.1402
      7 F          65.8458   91.9128   15.4088 F       1  UNL1       -0.2042
      8 C          64.5149   92.0005   13.1792 C.ar    1  UNL1        0.0311
      9 C          63.7229   91.3067   12.1109 C.ar    1  UNL1        0.0195
     10 C          63.4697   89.8311   12.2039 C.ar    1  UNL1        0.0598
     11 C          63.8480   86.3932   14.0204 C.3     1  UNL1        0.1216
     12 N          63.3042   85.0658   13.5818 N.am    1  UNL1       -0.2715
     13 C          63.5511   83.8422   14.4138 C.2     1  UNL1        0.2493
     14 O          64.3418   83.9461   15.6842 O.2     1  UNL1       -0.2699
     15 C          62.5136   84.9619   12.3114 C.3     1  UNL1        0.1003
     16 C          62.2668   86.1854   11.4795 C.3     1  UNL1        0.0650
     17 C          63.0073   82.5149   13.9751 C.ar    1  UNL1        0.0544
     18 C          63.8462   81.6028   13.1299 C.ar    1  UNL1        0.0046
     19 C          63.3023   80.2754   12.6913 C.ar    1  UNL1        0.0010
     20 C          61.9194   79.8602   13.0978 C.ar    1  UNL1        0.0114
     21 C          61.0804   80.7723   13.9430 C.ar    1  UNL1        0.0578
     22 CL         59.6976   80.3571   14.3496 Cl      1  UNL1       -0.0822
     23 C          61.6244   82.0996   14.3817 C.ar    1  UNL1        0.0159
     24 C          62.0303   89.2378   10.0311 C.3     1  UNL1        0.1474
     25 O          59.7323   88.1146    9.5757 O.co2   1  UNL1       -0.5472
     26 C          60.5329   89.3133    9.9909 C.2     1  UNL1        0.0732
     27 O          59.8357   90.5875   10.3658 O.co2   1  UNL1       -0.5472
@<TRIPOS>UNITY_ATOM_ATTR
25 1
charge -1
@<TRIPOS>BOND
     1    25    26   ar
     2    26    27   ar
     3    26    24    1
     4    24     1    1
     5     1     2   ar
     6     2     3   ar
     7     3     4   ar
     8     4     5   ar
     9     5     6   ar
    10     6     7    1
    11     6     8   ar
    12     8     9   ar
    13     9    10   ar
    14     3    11    1
    15    11    12    1
    16    12    13   am
    17    13    14    2
    18    13    17    1
    19    17    18   ar
    20    18    19   ar
    21    19    20   ar
    22    20    21   ar
    23    21    22    1
    24    21    23   ar
    25    12    15    1
    26    15    16    1
    27    10     1   ar
    28    23    17   ar
    29    16     2    1
    30    10     4   ar
@<TRIPOS>MOLECULE
*****
 27 30 0 0 0
SMALL
GASTEIGER

@<TRIPOS>ATOM
      1 N          61.7337   86.9740   11.1972 N.ar    1  UNL1       -0.3256
      2 C          62.5839   88.1122   11.6787 C.ar    1  UNL1        0.0367
      3 C          62.3526   89.2812   10.7676 C.ar    1  UNL1        0.0109
      4 C          61.3596   88.8655    9.7231 C.ar    1  UNL1        0.0167
      5 C          60.7542   89.6012    8.5646 C.ar    1  UNL1        0.0308
      6 C          59.7663   88.9109    7.6715 C.ar    1  UNL1        0.1402
      7 F          59.1609   89.6466    6.5129 F       1  UNL1       -0.2042
      8 C          59.3838   87.4850    7.9370 C.ar    1  UNL1        0.0311
      9 C          59.9892   86.7493    9.0955 C.ar    1  UNL1        0.0195
     10 C          60.9771   87.4396    9.9886 C.ar    1  UNL1        0.0598
     11 C          63.0762   90.5731   11.0069 C.3     1  UNL1        0.1216
     12 N          64.0311   90.6961   12.1572 N.am    1  UNL1       -0.2715
     13 C          64.7547   91.9881   12.3964 C.2     1  UNL1        0.2493
     14 O          64.5234   93.1571   11.4854 O.2     1  UNL1       -0.2699
     15 C          64.2623   89.5271   13.0682 C.3     1  UNL1        0.1003
     16 C          63.5388   88.2352   12.8290 C.3     1  UNL1        0.0650
     17 C          65.7095   92.1110   13.5468 C.ar    1  UNL1        0.0544
     18 C          65.1854   92.2309   14.9471 C.ar    1  UNL1        0.0046
     19 C          66.1403   92.3537   16.0974 C.ar    1  UNL1        0.0010
     20 C          67.6193   92.3568   15.8473 C.ar    1  UNL1        0.0114
     21 C          68.1435   92.2369   14.4469 C.ar    1  UNL1        0.0578
     22 CL         69.6224   92.2399   14.1968 Cl      1  UNL1       -0.0822
     23 C          67.1885   92.1140   13.2966 C.ar    1  UNL1        0.0159
     24 C          61.6542   85.6098   11.8157 C.3     1  UNL1        0.1474
     25 O          63.1824   84.6124    9.9664 O.co2   1  UNL1       -0.5472
     26 C          62.5432   84.5083   11.3195 C.2     1  UNL1        0.0732
     27 O          62.7931   83.3026   12.1762 O.co2   1  UNL1       -0.5472
@<TRIPOS>UNITY_ATOM_ATTR
25 1
charge -1
@<TRIPOS>BOND
     1    25    26   ar
     2    26    27   ar
     3    26    24    1
     4    24     1    1
     5     1     2   ar
     6     2     3   ar
     7     3     4   ar
     8     4     5   ar
     9     5     6   ar
    10     6     7    1
    11     6     8   ar
    12     8     9   ar
    13     9    10   ar
    14     3    11    1
    15    11    12    1
    16    12    13   am
    17    13    14    2
    18    13    17    1
    19    17    18   ar
    20    18    19   ar
    21    19    20   ar
    22    20    21   ar
    23    21    22    1
    24    21    23   ar
    25    12    15    1
    26    15    16    1
    27    10     1   ar
    28    23    17   ar
    29    16     2    1
    30    10     4   ar
@<TRIPOS>MOLECULE
*****
 27 30 0 0 0
SMALL
GASTEIGER

@<TRIPOS>ATOM
      1 N          63.2436   88.6080   12.1658 N.ar    1  UNL1       -0.3256
      2 C          62.3780   88.7344   10.9473 C.ar    1  UNL1        0.0367
      3 C          61.8217   87.3778   10.6312 C.ar    1  UNL1        0.0109
      4 C          62.3434   86.4129   11.6544 C.ar    1  UNL1        0.0167
      5 C          62.1318   84.9402   11.8450 C.ar    1  UNL1        0.0308
      6 C          62.7990   84.2279   12.9840 C.ar    1  UNL1        0.1402
      7 F          62.5874   82.7551   13.1746 F       1  UNL1       -0.2042
      8 C          63.6778   84.9883   13.9324 C.ar    1  UNL1        0.0311
      9 C          63.8894   86.4610   13.7419 C.ar    1  UNL1        0.0195
     10 C          63.2222   87.1733   12.6028 C.ar    1  UNL1        0.0598
     11 C          60.9119   87.1962    9.4525 C.3     1  UNL1        0.1216
     12 N          60.5584   88.3714    8.5899 N.am    1  UNL1       -0.2715
     13 C          59.6486   88.1898    7.4112 C.2     1  UNL1        0.2493
     14 O          59.0922   86.8331    7.0951 O.2     1  UNL1       -0.2699
     15 C          61.1147   89.7281    8.9060 C.3     1  UNL1        0.1003
     16 C          62.0245   89.9096   10.0846 C.3     1  UNL1        0.0650
     17 C          59.2952   89.3650    6.5486 C.ar    1  UNL1        0.0544
     18 C          60.3807   90.1895    5.9227 C.ar    1  UNL1        0.0046
     19 C          60.0272   91.3647    5.0601 C.ar    1  UNL1        0.0010
     20 C          58.5881   91.7154    4.8235 C.ar    1  UNL1        0.0114
     21 C          57.5025   90.8910    5.4495 C.ar    1  UNL1        0.0578
     22 CL         56.0634   91.2417    5.2128 Cl      1  UNL1       -0.0822
     23 C          57.8560   89.7158    6.3120 C.ar    1  UNL1        0.0159
     24 C          63.9981   89.7210   12.8306 C.3     1  UNL1        0.1474
     25 O          62.3306   89.7344   14.8230 O.co2   1  UNL1       -0.5472
     26 C          63.4251   90.3977   14.0404 C.2     1  UNL1        0.0732
     27 O          63.9463   91.7377   14.4678 O.co2   1  UNL1       -0.5472
@<TRIPOS>UNITY_ATOM_ATTR
25 1
charge -1
@<TRIPOS>BOND
     1    25    26   ar
     2    26    27   ar
     3    26    24    1
     4    24     1    1
     5     1     2   ar
     6     2     3   ar
     7     3     4   ar
     8     4     5   ar
     9     5     6   ar
    10     6     7    1
    11     6     8   ar
    12     8     9   ar
    13     9    10   ar
    14     3    11    1
    15    11    12    1
    16    12    13   am
    17    13    14    2
    18    13    17    1
    19    17    18   ar
    20    18    19   ar
    21    19    20   ar
    22    20    21   ar
    23    21    22    1
    24    21    23   ar
    25    12    15    1
    26    15    16    1
    27    10     1   ar
    28    23    17   ar
    29    16     2    1
    30    10     4   ar
@<TRIPOS>MOLECULE
*****
 27 30 0 0 0
SMALL
GASTEIGER

@<TRIPOS>ATOM
      1 N          62.9197   94.0280   -1.1902 N.ar    1  UNL1       -0.3256
      2 C          61.5531   93.7811   -1.7571 C.ar    1  UNL1        0.0367
      3 C          60.7572   93.0247   -0.7352 C.ar    1  UNL1        0.0109
      4 C          61.6318   92.8041    0.4632 C.ar    1  UNL1        0.0167
      5 C          61.3839   92.1187    1.7742 C.ar    1  UNL1        0.0308
      6 C          62.4725   92.0533    2.8040 C.ar    1  UNL1        0.1402
      7 F          62.2246   91.3679    4.1151 F       1  UNL1       -0.2042
      8 C          63.8091   92.6735    2.5229 C.ar    1  UNL1        0.0311
      9 C          64.0570   93.3589    1.2119 C.ar    1  UNL1        0.0195
     10 C          62.9684   93.4242    0.1821 C.ar    1  UNL1        0.0598
     11 C          59.3387   92.6345   -1.0281 C.3     1  UNL1        0.1216
     12 N          58.7163   93.0008   -2.3428 N.am    1  UNL1       -0.2715
     13 C          57.2978   92.6105   -2.6356 C.2     1  UNL1        0.2493
     14 O          56.5018   91.8541   -1.6138 O.2     1  UNL1       -0.2699
     15 C          59.5122   93.7572   -3.3647 C.3     1  UNL1        0.1003
     16 C          60.9307   94.1474   -3.0718 C.3     1  UNL1        0.0650
     17 C          56.6754   92.9768   -3.9503 C.ar    1  UNL1        0.0544
     18 C          56.7748   92.0369   -5.1151 C.ar    1  UNL1        0.0046
     19 C          56.1524   92.4033   -6.4298 C.ar    1  UNL1        0.0010
     20 C          55.4306   93.7096   -6.5797 C.ar    1  UNL1        0.0114
     21 C          55.3312   94.6496   -5.4150 C.ar    1  UNL1        0.0578
     22 CL         54.6094   95.9559   -5.5649 Cl      1  UNL1       -0.0822
     23 C          55.9536   94.2832   -4.1003 C.ar    1  UNL1        0.0159
     24 C          64.0409   94.7517   -1.8752 C.3     1  UNL1        0.1474
     25 O          63.7560   96.8544   -0.3759 O.co2   1  UNL1       -0.5472
     26 C          64.6070   96.0020   -1.2701 C.2     1  UNL1        0.0732
     27 O          66.0240   96.4002   -1.5592 O.co2   1  UNL1       -0.5472
@<TRIPOS>UNITY_ATOM_ATTR
25 1
charge -1
@<TRIPOS>BOND
     1    25    26   ar
     2    26    27   ar
     3    26    24    1
     4    24     1    1
     5     1     2   ar
     6     2     3   ar
     7     3     4   ar
     8     4     5   ar
     9     5     6   ar
    10     6     7    1
    11     6     8   ar
    12     8     9   ar
    13     9    10   ar
    14     3    11    1
    15    11    12    1
    16    12    13   am
    17    13    14    2
    18    13    17    1
    19    17    18   ar
    20    18    19   ar
    21    19    20   ar
    22    20    21   ar
    23    21    22    1
    24    21    23   ar
    25    12    15    1
    26    15    16    1
    27    10     1   ar
    28    23    17   ar
    29    16     2    1
    30    10     4   ar
@<TRIPOS>MOLECULE
*****
 27 30 0 0 0
SMALL
GASTEIGER

@<TRIPOS>ATOM
      1 N          62.8678   93.9976   -1.5261 N.ar    1  UNL1       -0.3256
      2 C          61.4797   93.7618   -2.0432 C.ar    1  UNL1        0.0367
      3 C          60.6973   93.0651   -0.9697 C.ar    1  UNL1        0.0109
      4 C          61.6019   92.8702    0.2108 C.ar    1  UNL1        0.0167
      5 C          61.3775   92.2424    1.5545 C.ar    1  UNL1        0.0308
      6 C          62.4945   92.1909    2.5543 C.ar    1  UNL1        0.1402
      7 F          62.2701   91.5631    3.8980 F       1  UNL1       -0.2042
      8 C          63.8360   92.7673    2.2104 C.ar    1  UNL1        0.0311
      9 C          64.0604   93.3951    0.8667 C.ar    1  UNL1        0.0195
     10 C          62.9434   93.4465   -0.1330 C.ar    1  UNL1        0.0598
     11 C          59.2622   92.6981   -1.2059 C.3     1  UNL1        0.1216
     12 N          58.6095   93.0279   -2.5155 N.am    1  UNL1       -0.2715
     13 C          57.1743   92.6608   -2.7517 C.2     1  UNL1        0.2493
     14 O          56.3919   91.9641   -1.6782 O.2     1  UNL1       -0.2699
     15 C          59.3918   93.7246   -3.5890 C.3     1  UNL1        0.1003
     16 C          60.8269   94.0916   -3.3529 C.3     1  UNL1        0.0650
     17 C          56.5216   92.9907   -4.0614 C.ar    1  UNL1        0.0544
     18 C          55.9290   94.3507   -4.2826 C.ar    1  UNL1        0.0046
     19 C          55.2764   94.6805   -5.5924 C.ar    1  UNL1        0.0010
     20 C          55.2164   93.6501   -6.6808 C.ar    1  UNL1        0.0114
     21 C          55.8090   92.2900   -6.4596 C.ar    1  UNL1        0.0578
     22 CL         55.7490   91.2596   -7.5480 Cl      1  UNL1       -0.0822
     23 C          56.4616   91.9602   -5.1498 C.ar    1  UNL1        0.0159
     24 C          63.9844   94.6669   -2.2713 C.3     1  UNL1        0.1474
     25 O          64.9705   95.0667   -4.6414 O.co2   1  UNL1       -0.5472
     26 C          64.4236   94.1331   -3.6024 C.2     1  UNL1        0.0732
     27 O          64.3160   92.6658   -3.8947 O.co2   1  UNL1       -0.5472
@<TRIPOS>UNITY_ATOM_ATTR
25 1
charge -1
@<TRIPOS>BOND
     1    25    26   ar
     2    26    27   ar
     3    26    24    1
     4    24     1    1
     5     1     2   ar
     6     2     3   ar
     7     3     4   ar
     8     4     5   ar
     9     5     6   ar
    10     6     7    1
    11     6     8   ar
    12     8     9   ar
    13     9    10   ar
    14     3    11    1
    15    11    12    1
    16    12    13   am
    17    13    14    2
    18    13    17    1
    19    17    18   ar
    20    18    19   ar
    21    19    20   ar
    22    20    21   ar
    23    21    22    1
    24    21    23   ar
    25    12    15    1
    26    15    16    1
    27    10     1   ar
    28    23    17   ar
    29    16     2    1
    30    10     4   ar
