@<TRIPOS>MOLECULE
*****
 32 36 0 0 0
SMALL
GASTEIGER

@<TRIPOS>ATOM
      1 C          61.0377   85.7432   10.8888 C.3     1  UNL1        0.0298
      2 C          61.0936   87.0966   10.2444 C.3     1  UNL1        0.1343
      3 C          60.2970   87.3697    9.0031 C.ar    1  UNL1        0.1615
      4 N          59.3742   86.5083    8.1929 N.ar    1  UNL1       -0.1316
      5 N          58.8598   87.3293    7.0478 N.ar    1  UNL1       -0.1274
      6 C          59.4647   88.6982    7.1503 C.ar    1  UNL1        0.1845
      7 N          60.3529   88.7231    8.3587 N.ar    1  UNL1       -0.2944
      8 C          61.2054   89.8034    8.9557 C.3     1  UNL1        0.1302
      9 C          62.0020   89.5302   10.1970 C.3     1  UNL1        0.1186
     10 N          61.9461   88.1769   10.8413 N.am    1  UNL1       -0.2688
     11 C          62.7428   87.9037   12.0827 C.2     1  UNL1        0.2493
     12 O          62.6868   86.5503   12.7270 O.2     1  UNL1       -0.2699
     13 C          63.5953   88.9839   12.6796 C.ar    1  UNL1        0.0536
     14 C          63.7783   90.2829   11.9521 C.ar    1  UNL1        0.0045
     15 C          64.6308   91.3631   12.5491 C.ar    1  UNL1        0.0006
     16 C          65.3003   91.1444   13.8734 C.ar    1  UNL1        0.0060
     17 C          65.1173   89.8453   14.6009 C.ar    1  UNL1        0.0006
     18 C          64.2647   88.7651   14.0040 C.ar    1  UNL1        0.0045
     19 C          66.1528   92.2245   14.4705 C.ar    1  UNL1        0.0295
     20 C          66.7576   92.2131   15.8430 C.ar    1  UNL1        0.0070
     21 C          67.5288   93.4873   16.0205 C.ar    1  UNL1        0.0075
     22 C          67.4006   94.2864   14.7575 C.ar    1  UNL1        0.0354
     23 S          66.5502   93.5060   13.7996 S.2     1  UNL1       -0.0864
     24 C          59.2236   89.8413    6.2095 C.ar    1  UNL1        0.1241
     25 C          57.9133   90.5352    5.9826 C.ar    1  UNL1        0.0590
     26 S          58.1305   91.6140    4.9632 S.2     1  UNL1       -0.0620
     27 C          59.5750   91.5868    4.5601 C.ar    1  UNL1        0.1825
     28 N          60.2506   90.4912    5.3303 N.ar    1  UNL1       -0.2314
     29 C          60.2291   92.4956    3.5620 C.3     1  UNL1        0.4407
     30 F          60.8832   93.4045    2.5639 F       1  UNL1       -0.1640
     31 F          58.8795   92.9589    3.0994 F       1  UNL1       -0.1640
     32 F          61.5787   92.0324    4.0246 F       1  UNL1       -0.1640
@<TRIPOS>BOND
     1     2     1    1
     2     2     3    1
     3     3     4   ar
     4     4     5   ar
     5     5     6   ar
     6     6    24    1
     7    24    25   ar
     8    25    26   ar
     9    26    27   ar
    10    27    29    1
    11    29    30    1
    12    29    31    1
    13    29    32    1
    14    27    28   ar
    15     6     7   ar
    16     7     8    1
    17     8     9    1
    18     9    10    1
    19    10    11   am
    20    11    12    2
    21    11    13    1
    22    13    14   ar
    23    14    15   ar
    24    15    16   ar
    25    16    19    1
    26    19    20   ar
    27    20    21   ar
    28    21    22   ar
    29    22    23   ar
    30    16    17   ar
    31    17    18   ar
    32    10     2    1
    33    18    13   ar
    34     7     3   ar
    35    23    19   ar
    36    28    24   ar
@<TRIPOS>MOLECULE
*****
 32 36 0 0 0
SMALL
GASTEIGER

@<TRIPOS>ATOM
      1 C          59.7975   87.2582    9.6007 C.3     1  UNL1        0.0298
      2 C          60.6846   88.4671    9.6422 C.3     1  UNL1        0.1343
      3 C          61.5753   88.7036   10.8257 C.ar    1  UNL1        0.1615
      4 N          61.7922   87.9259   12.0899 N.ar    1  UNL1       -0.1316
      5 N          62.8133   88.6542   12.9126 N.ar    1  UNL1       -0.1274
      6 C          63.2275   89.8820   12.1570 C.ar    1  UNL1        0.1845
      7 N          62.4623   89.9125   10.8671 N.ar    1  UNL1       -0.2944
      8 C          62.4587   90.8849    9.7251 C.3     1  UNL1        0.1302
      9 C          61.5681   90.6485    8.5415 C.3     1  UNL1        0.1186
     10 N          60.6811   89.4396    8.5001 N.am    1  UNL1       -0.2688
     11 C          59.7903   89.2031    7.3164 C.2     1  UNL1        0.2493
     12 O          58.9033   87.9942    7.2750 O.2     1  UNL1       -0.2699
     13 C          59.7867   90.1756    6.1744 C.ar    1  UNL1        0.0536
     14 C          58.5061   90.8335    5.7536 C.ar    1  UNL1        0.0045
     15 C          58.5025   91.8060    4.6115 C.ar    1  UNL1        0.0006
     16 C          59.7795   92.1204    3.8902 C.ar    1  UNL1        0.0060
     17 C          61.0602   91.4624    4.3109 C.ar    1  UNL1        0.0006
     18 C          61.0638   90.4900    5.4530 C.ar    1  UNL1        0.0045
     19 C          59.7760   93.0928    2.7481 C.ar    1  UNL1        0.0295
     20 C          60.3122   94.4933    2.7807 C.ar    1  UNL1        0.0070
     21 C          60.1032   95.1013    1.4255 C.ar    1  UNL1        0.0075
     22 C          59.4379   94.0766    0.5553 C.ar    1  UNL1        0.0354
     23 S          59.2356   92.8353    1.3727 S.2     1  UNL1       -0.0864
     24 C          64.2307   90.9004   12.6113 C.ar    1  UNL1        0.1241
     25 C          64.8463   91.9719   11.7612 C.ar    1  UNL1        0.0590
     26 S          65.7905   92.7598   12.6201 S.2     1  UNL1       -0.0620
     27 C          65.7584   92.1752   14.0011 C.ar    1  UNL1        0.1825
     28 N          64.7944   91.0260   13.9957 N.ar    1  UNL1       -0.2314
     29 C          66.5512   92.6555   15.1805 C.3     1  UNL1        0.4407
     30 F          67.3439   93.1358   16.3599 F       1  UNL1       -0.1640
     31 F          65.3809   92.3824   16.0783 F       1  UNL1       -0.1640
     32 F          67.7214   92.9286   14.2827 F       1  UNL1       -0.1640
@<TRIPOS>BOND
     1     2     1    1
     2     2     3    1
     3     3     4   ar
     4     4     5   ar
     5     5     6   ar
     6     6    24    1
     7    24    25   ar
     8    25    26   ar
     9    26    27   ar
    10    27    29    1
    11    29    30    1
    12    29    31    1
    13    29    32    1
    14    27    28   ar
    15     6     7   ar
    16     7     8    1
    17     8     9    1
    18     9    10    1
    19    10    11   am
    20    11    12    2
    21    11    13    1
    22    13    14   ar
    23    14    15   ar
    24    15    16   ar
    25    16    19    1
    26    19    20   ar
    27    20    21   ar
    28    21    22   ar
    29    22    23   ar
    30    16    17   ar
    31    17    18   ar
    32    10     2    1
    33    18    13   ar
    34     7     3   ar
    35    23    19   ar
    36    28    24   ar
@<TRIPOS>MOLECULE
*****
 32 36 0 0 0
SMALL
GASTEIGER

@<TRIPOS>ATOM
      1 C          61.5573   85.3814   11.3925 C.3     1  UNL1        0.0298
      2 C          61.4820   86.7246   10.7289 C.3     1  UNL1        0.1343
      3 C          60.6154   86.9161    9.5196 C.ar    1  UNL1        0.1615
      4 N          59.7284   85.9739    8.7610 N.ar    1  UNL1       -0.1316
      5 N          59.1049   86.7347    7.6286 N.ar    1  UNL1       -0.1274
      6 C          59.6066   88.1472    7.6873 C.ar    1  UNL1        0.1845
      7 N          60.5401   88.2593    8.8560 N.ar    1  UNL1       -0.2944
      8 C          61.3314   89.4108    9.4017 C.3     1  UNL1        0.1302
      9 C          62.1979   89.2193   10.6110 C.3     1  UNL1        0.1186
     10 N          62.2732   87.8762   11.2746 N.am    1  UNL1       -0.2688
     11 C          63.1398   87.6847   12.4839 C.2     1  UNL1        0.2493
     12 O          63.2151   86.3415   13.1475 O.2     1  UNL1       -0.2699
     13 C          63.9311   88.8362   13.0297 C.ar    1  UNL1        0.0536
     14 C          64.6356   88.7046   14.3473 C.ar    1  UNL1        0.0045
     15 C          65.4269   89.8563   14.8930 C.ar    1  UNL1        0.0006
     16 C          65.5135   91.1394   14.1211 C.ar    1  UNL1        0.0060
     17 C          64.8089   91.2710   12.8033 C.ar    1  UNL1        0.0006
     18 C          64.0177   90.1194   12.2576 C.ar    1  UNL1        0.0045
     19 C          66.3048   92.2910   14.6667 C.ar    1  UNL1        0.0295
     20 C          66.9704   92.3460   16.0097 C.ar    1  UNL1        0.0070
     21 C          67.6462   93.6789   16.1380 C.ar    1  UNL1        0.0075
     22 C          67.3983   94.4478   14.8742 C.ar    1  UNL1        0.0354
     23 S          66.5692   93.5901   13.9648 S.2     1  UNL1       -0.0864
     24 C          59.2392   89.2532    6.7431 C.ar    1  UNL1        0.1241
     25 C          60.1989   90.0995    5.9603 C.ar    1  UNL1        0.0590
     26 S          59.4003   91.0765    5.1493 S.2     1  UNL1       -0.0620
     27 C          57.9471   90.8341    5.4308 C.ar    1  UNL1        0.1825
     28 N          57.8475   89.7073    6.4159 N.ar    1  UNL1       -0.2314
     29 C          56.7956   91.5865    4.8324 C.3     1  UNL1        0.4407
     30 F          55.6441   92.3388    4.2340 F       1  UNL1       -0.1640
     31 F          57.7555   92.4354    4.0527 F       1  UNL1       -0.1640
     32 F          55.8357   90.7376    5.6122 F       1  UNL1       -0.1640
@<TRIPOS>BOND
     1     2     1    1
     2     2     3    1
     3     3     4   ar
     4     4     5   ar
     5     5     6   ar
     6     6    24    1
     7    24    25   ar
     8    25    26   ar
     9    26    27   ar
    10    27    29    1
    11    29    30    1
    12    29    31    1
    13    29    32    1
    14    27    28   ar
    15     6     7   ar
    16     7     8    1
    17     8     9    1
    18     9    10    1
    19    10    11   am
    20    11    12    2
    21    11    13    1
    22    13    14   ar
    23    14    15   ar
    24    15    16   ar
    25    16    19    1
    26    19    20   ar
    27    20    21   ar
    28    21    22   ar
    29    22    23   ar
    30    16    17   ar
    31    17    18   ar
    32    10     2    1
    33    18    13   ar
    34     7     3   ar
    35    23    19   ar
    36    28    24   ar
@<TRIPOS>MOLECULE
*****
 32 36 0 0 0
SMALL
GASTEIGER

@<TRIPOS>ATOM
      1 C          61.4811   90.0500    9.5813 C.3     1  UNL1        0.0298
      2 C          62.1436   89.1227   10.5567 C.3     1  UNL1        0.1343
      3 C          61.7461   87.6772   10.6059 C.ar    1  UNL1        0.1615
      4 N          60.7411   86.8854    9.8230 N.ar    1  UNL1       -0.1316
      5 N          60.7825   85.4688   10.3145 N.ar    1  UNL1       -0.1274
      6 C          61.8131   85.3851   11.4012 C.ar    1  UNL1        0.1845
      7 N          62.4086   86.7500   11.5813 N.ar    1  UNL1       -0.2944
      8 C          63.4686   87.2683   12.5074 C.3     1  UNL1        0.1302
      9 C          63.8661   88.7138   12.4582 C.3     1  UNL1        0.1186
     10 N          63.2036   89.6410   11.4829 N.am    1  UNL1       -0.2688
     11 C          63.6011   91.0866   11.4336 C.2     1  UNL1        0.2493
     12 O          62.9386   92.0138   10.4583 O.2     1  UNL1       -0.2699
     13 C          64.6611   91.6049   12.3598 C.ar    1  UNL1        0.0536
     14 C          64.6364   91.2309   13.8122 C.ar    1  UNL1        0.0045
     15 C          65.6964   91.7493   14.7383 C.ar    1  UNL1        0.0006
     16 C          66.7811   92.6416   14.2120 C.ar    1  UNL1        0.0060
     17 C          66.8059   93.0156   12.7596 C.ar    1  UNL1        0.0006
     18 C          65.7459   92.4973   11.8334 C.ar    1  UNL1        0.0045
     19 C          67.8412   93.1600   15.1381 C.ar    1  UNL1        0.0295
     20 C          68.1759   94.6027   15.3757 C.ar    1  UNL1        0.0070
     21 C          69.2943   94.6609   16.3736 C.ar    1  UNL1        0.0075
     22 C          69.6508   93.2541   16.7527 C.ar    1  UNL1        0.0354
     23 S          68.7528   92.3265   15.9892 S.2     1  UNL1       -0.0864
     24 C          62.1831   84.1529   12.1723 C.ar    1  UNL1        0.1241
     25 C          62.6610   84.1126   13.5936 C.ar    1  UNL1        0.0590
     26 S          62.9134   82.6794   13.9572 S.2     1  UNL1       -0.0620
     27 C          62.5915   81.8339   12.7607 C.ar    1  UNL1        0.1825
     28 N          62.1402   82.7446   11.6576 N.ar    1  UNL1       -0.2314
     29 C          62.7017   80.3401   12.6813 C.3     1  UNL1        0.4407
     30 F          62.8118   78.8462   12.6019 F       1  UNL1       -0.1640
     31 F          62.5555   80.2501   14.1714 F       1  UNL1       -0.1640
     32 F          62.8479   80.4301   11.1912 F       1  UNL1       -0.1640
@<TRIPOS>BOND
     1     2     1    1
     2     2     3    1
     3     3     4   ar
     4     4     5   ar
     5     5     6   ar
     6     6    24    1
     7    24    25   ar
     8    25    26   ar
     9    26    27   ar
    10    27    29    1
    11    29    30    1
    12    29    31    1
    13    29    32    1
    14    27    28   ar
    15     6     7   ar
    16     7     8    1
    17     8     9    1
    18     9    10    1
    19    10    11   am
    20    11    12    2
    21    11    13    1
    22    13    14   ar
    23    14    15   ar
    24    15    16   ar
    25    16    19    1
    26    19    20   ar
    27    20    21   ar
    28    21    22   ar
    29    22    23   ar
    30    16    17   ar
    31    17    18   ar
    32    10     2    1
    33    18    13   ar
    34     7     3   ar
    35    23    19   ar
    36    28    24   ar
