@<TRIPOS>MOLECULE
*****
 26 28 0 0 0
SMALL
GASTEIGER

@<TRIPOS>ATOM
      1 C          65.8058   92.2516   13.1239 C.ar    1  UNL1        0.1362
      2 C          64.9783   91.2649   12.3548 C.ar    1  UNL1        0.0397
      3 C          63.9684   90.4156   13.0682 C.ar    1  UNL1        0.0384
      4 C          63.7861   90.5531   14.5507 C.ar    1  UNL1        0.1386
      5 C          64.6136   91.5398   15.3198 C.ar    1  UNL1        0.0370
      6 C          65.6234   92.3891   14.6065 C.ar    1  UNL1        0.0309
      7 C          63.1409   89.4288   12.2991 C.ar    1  UNL1        0.0206
      8 C          62.2118   89.9068   11.2228 C.ar    1  UNL1        0.0784
      9 N          61.3843   88.9200   10.4537 N.ar    1  UNL1       -0.2921
     10 C          60.4552   89.3980    9.3774 C.3     1  UNL1        0.1336
     11 C          61.4859   87.4553   10.7608 C.ar    1  UNL1        0.2624
     12 O          60.6584   86.4686    9.9917 O.2     1  UNL1       -0.2669
     13 C          62.4150   86.9773   11.8371 C.ar    1  UNL1        0.0753
     14 C          62.5166   85.5127   12.1443 C.ar    1  UNL1        0.1036
     15 N          63.4456   85.0347   13.2205 N.ar    1  UNL1       -0.2422
     16 C          64.2731   86.0215   13.9896 C.ar    1  UNL1        0.0989
     17 C          64.1716   87.4862   13.6825 C.ar    1  UNL1        0.0209
     18 C          63.2425   87.9641   12.6063 C.ar    1  UNL1        0.0092
     19 C          66.3639   94.2669   11.5822 C.3     1  UNL1        0.2525
     20 O          66.8157   93.1009   12.4105 O.3     1  UNL1       -0.4717
     21 O          62.7762   89.7038   15.2641 O.3     1  UNL1       -0.4714
     22 C          63.0680   89.1905   16.6430 C.3     1  UNL1        0.2525
     23 C          66.4510   93.3758   15.3756 C.3     1  UNL1        0.1023
     24 N          67.8976   93.0893   15.6494 N.3     1  UNL1       -0.2664
     25 C          68.4103   91.6815   15.5761 C.3     1  UNL1        0.0899
     26 C          68.8316   94.2105   15.9967 C.3     1  UNL1        0.0899
@<TRIPOS>BOND
     1    19    20    1
     2    20     1    1
     3     1     2   ar
     4     2     3   ar
     5     3     7    1
     6     7     8   ar
     7     8     9   ar
     8     9    10    1
     9     9    11   ar
    10    11    12    2
    11    11    13   ar
    12    13    14   ar
    13    14    15   ar
    14    15    16   ar
    15    16    17   ar
    16    17    18   ar
    17     3     4   ar
    18     4    21    1
    19    21    22    1
    20     4     5   ar
    21     5     6   ar
    22     6    23    1
    23    23    24    1
    24    24    25    1
    25    24    26    1
    26     6     1   ar
    27    18     7   ar
    28    18    13   ar
@<TRIPOS>MOLECULE
*****
 26 28 0 0 0
SMALL
GASTEIGER

@<TRIPOS>ATOM
      1 C          63.5174   83.5827   12.5794 C.ar    1  UNL1        0.1362
      2 C          63.5599   85.0636   12.3450 C.ar    1  UNL1        0.0397
      3 C          63.5660   86.0076   13.5108 C.ar    1  UNL1        0.0384
      4 C          63.5296   85.4706   14.9109 C.ar    1  UNL1        0.1386
      5 C          63.4871   83.9896   15.1452 C.ar    1  UNL1        0.0370
      6 C          63.4810   83.0457   13.9796 C.ar    1  UNL1        0.0309
      7 C          63.6085   87.4886   13.2764 C.ar    1  UNL1        0.0206
      8 C          64.3402   88.3791   14.2363 C.ar    1  UNL1        0.0784
      9 N          64.3826   89.8601   14.0019 N.ar    1  UNL1       -0.2921
     10 C          65.1144   90.7507   14.9619 C.3     1  UNL1        0.1336
     11 C          63.6934   90.4505   12.8076 C.ar    1  UNL1        0.2624
     12 O          63.7359   91.9315   12.5732 O.2     1  UNL1       -0.2669
     13 C          62.9617   89.5599   11.8476 C.ar    1  UNL1        0.0753
     14 C          62.2724   90.1503   10.6534 C.ar    1  UNL1        0.1036
     15 N          61.5407   89.2597    9.6935 N.ar    1  UNL1       -0.2422
     16 C          61.4983   87.7788    9.9279 C.ar    1  UNL1        0.0989
     17 C          62.1875   87.1884   11.1221 C.ar    1  UNL1        0.0209
     18 C          62.9192   88.0789   12.0820 C.ar    1  UNL1        0.0092
     19 C          64.3141   82.9565   10.1872 C.3     1  UNL1        0.2525
     20 O          63.5113   82.6387   11.4137 O.3     1  UNL1       -0.4717
     21 O          63.5357   86.4146   16.0766 O.3     1  UNL1       -0.4714
     22 C          62.6810   86.1306   17.2761 C.3     1  UNL1        0.2525
     23 C          63.4386   81.5647   14.2140 C.3     1  UNL1        0.1023
     24 N          62.2844   80.7567   13.6992 N.3     1  UNL1       -0.2664
     25 C          60.8936   81.0433   14.1823 C.3     1  UNL1        0.0899
     26 C          62.5211   79.6620   12.7013 C.3     1  UNL1        0.0899
@<TRIPOS>BOND
     1    19    20    1
     2    20     1    1
     3     1     2   ar
     4     2     3   ar
     5     3     7    1
     6     7     8   ar
     7     8     9   ar
     8     9    10    1
     9     9    11   ar
    10    11    12    2
    11    11    13   ar
    12    13    14   ar
    13    14    15   ar
    14    15    16   ar
    15    16    17   ar
    16    17    18   ar
    17     3     4   ar
    18     4    21    1
    19    21    22    1
    20     4     5   ar
    21     5     6   ar
    22     6    23    1
    23    23    24    1
    24    24    25    1
    25    24    26    1
    26     6     1   ar
    27    18     7   ar
    28    18    13   ar
@<TRIPOS>MOLECULE
*****
 26 28 0 0 0
SMALL
GASTEIGER

@<TRIPOS>ATOM
      1 C          62.6705   83.9311   12.7042 C.ar    1  UNL1        0.1362
      2 C          62.0304   85.1825   12.1805 C.ar    1  UNL1        0.0397
      3 C          62.2716   85.6119   10.7636 C.ar    1  UNL1        0.0384
      4 C          63.1528   84.7900    9.8705 C.ar    1  UNL1        0.1386
      5 C          63.7929   83.5385   10.3941 C.ar    1  UNL1        0.0370
      6 C          63.5518   83.1091   11.8110 C.ar    1  UNL1        0.0309
      7 C          61.6315   86.8634   10.2400 C.ar    1  UNL1        0.0206
      8 C          60.6155   86.7822    9.1395 C.ar    1  UNL1        0.0784
      9 N          59.9754   88.0336    8.6158 N.ar    1  UNL1       -0.2921
     10 C          58.9593   87.9523    7.5153 C.3     1  UNL1        0.1336
     11 C          60.3513   89.3662    9.1926 C.ar    1  UNL1        0.2624
     12 O          59.7112   90.6176    8.6690 O.2     1  UNL1       -0.2669
     13 C          61.3673   89.4475   10.2932 C.ar    1  UNL1        0.0753
     14 C          61.7432   90.7801   10.8700 C.ar    1  UNL1        0.1036
     15 N          62.7592   90.8613   11.9705 N.ar    1  UNL1       -0.2422
     16 C          63.3993   89.6099   12.4942 C.ar    1  UNL1        0.0989
     17 C          63.0234   88.2772   11.9173 C.ar    1  UNL1        0.0209
     18 C          62.0074   88.1960   10.8169 C.ar    1  UNL1        0.0092
     19 C          63.2899   84.0411   15.2249 C.3     1  UNL1        0.2525
     20 O          62.4294   83.5017   14.1210 O.3     1  UNL1       -0.4717
     21 O          63.3939   85.2194    8.4536 O.3     1  UNL1       -0.4714
     22 C          62.5829   84.6240    7.3411 C.3     1  UNL1        0.2525
     23 C          64.1919   81.8577   12.3346 C.3     1  UNL1        0.1023
     24 N          63.3586   80.6347   12.5789 N.3     1  UNL1       -0.2664
     25 C          62.8379   79.8380   11.4194 C.3     1  UNL1        0.0899
     26 C          63.0458   80.2082   13.9826 C.3     1  UNL1        0.0899
@<TRIPOS>BOND
     1    19    20    1
     2    20     1    1
     3     1     2   ar
     4     2     3   ar
     5     3     7    1
     6     7     8   ar
     7     8     9   ar
     8     9    10    1
     9     9    11   ar
    10    11    12    2
    11    11    13   ar
    12    13    14   ar
    13    14    15   ar
    14    15    16   ar
    15    16    17   ar
    16    17    18   ar
    17     3     4   ar
    18     4    21    1
    19    21    22    1
    20     4     5   ar
    21     5     6   ar
    22     6    23    1
    23    23    24    1
    24    24    25    1
    25    24    26    1
    26     6     1   ar
    27    18     7   ar
    28    18    13   ar
@<TRIPOS>MOLECULE
*****
 26 28 0 0 0
SMALL
GASTEIGER

@<TRIPOS>ATOM
      1 C          63.6844   90.2733   15.1632 C.ar    1  UNL1        0.1362
      2 C          62.9662   89.4547   14.1316 C.ar    1  UNL1        0.0397
      3 C          63.1456   89.7600   12.6739 C.ar    1  UNL1        0.0384
      4 C          64.0432   90.8838   12.2479 C.ar    1  UNL1        0.1386
      5 C          64.7613   91.7023   13.2795 C.ar    1  UNL1        0.0370
      6 C          64.5819   91.3972   14.7371 C.ar    1  UNL1        0.0309
      7 C          62.4275   88.9414   11.6423 C.ar    1  UNL1        0.0206
      8 C          61.6249   89.6199   10.5721 C.ar    1  UNL1        0.0784
      9 N          60.9067   88.8013    9.5405 N.ar    1  UNL1       -0.2921
     10 C          60.1041   89.4799    8.4703 C.3     1  UNL1        0.1336
     11 C          60.9912   87.3042    9.5791 C.ar    1  UNL1        0.2624
     12 O          60.2730   86.4856    8.5475 O.2     1  UNL1       -0.2669
     13 C          61.7938   86.6256   10.6494 C.ar    1  UNL1        0.0753
     14 C          61.8783   85.1286   10.6880 C.ar    1  UNL1        0.1036
     15 N          62.6809   84.4500   11.7582 N.ar    1  UNL1       -0.2422
     16 C          63.3991   85.2686   12.7898 C.ar    1  UNL1        0.0989
     17 C          63.3146   86.7657   12.7512 C.ar    1  UNL1        0.0209
     18 C          62.5120   87.4442   11.6810 C.ar    1  UNL1        0.0092
     19 C          63.0903   88.5932   17.0536 C.3     1  UNL1        0.2525
     20 O          63.5050   89.9681   16.6208 O.3     1  UNL1       -0.4717
     21 O          64.2226   91.1890   10.7902 O.3     1  UNL1       -0.4714
     22 C          64.9345   92.4399   10.3680 C.3     1  UNL1        0.2525
     23 C          65.3001   92.2157   15.7687 C.3     1  UNL1        0.1023
     24 N          66.6539   92.7854   15.4647 N.3     1  UNL1       -0.2664
     25 C          66.7948   93.8881   14.4576 C.3     1  UNL1        0.0899
     26 C          67.8671   92.2524   16.1678 C.3     1  UNL1        0.0899
@<TRIPOS>BOND
     1    19    20    1
     2    20     1    1
     3     1     2   ar
     4     2     3   ar
     5     3     7    1
     6     7     8   ar
     7     8     9   ar
     8     9    10    1
     9     9    11   ar
    10    11    12    2
    11    11    13   ar
    12    13    14   ar
    13    14    15   ar
    14    15    16   ar
    15    16    17   ar
    16    17    18   ar
    17     3     4   ar
    18     4    21    1
    19    21    22    1
    20     4     5   ar
    21     5     6   ar
    22     6    23    1
    23    23    24    1
    24    24    25    1
    25    24    26    1
    26     6     1   ar
    27    18     7   ar
    28    18    13   ar
@<TRIPOS>MOLECULE
*****
 26 28 0 0 0
SMALL
GASTEIGER

@<TRIPOS>ATOM
      1 C          60.5054   87.7915   10.8486 C.ar    1  UNL1        0.1362
      2 C          61.0764   86.6628   11.6549 C.ar    1  UNL1        0.0397
      3 C          62.0047   85.6759   11.0111 C.ar    1  UNL1        0.0384
      4 C          62.3620   85.8177    9.5612 C.ar    1  UNL1        0.1386
      5 C          61.7910   86.9464    8.7550 C.ar    1  UNL1        0.0370
      6 C          60.8628   87.9333    9.3987 C.ar    1  UNL1        0.0309
      7 C          62.5757   84.5472   11.8173 C.ar    1  UNL1        0.0206
      8 C          62.3637   83.1290   11.3773 C.ar    1  UNL1        0.0784
      9 N          62.9347   82.0003   12.1836 N.ar    1  UNL1       -0.2921
     10 C          62.7227   80.5820   11.7435 C.3     1  UNL1        0.1336
     11 C          63.7177   82.2898   13.4298 C.ar    1  UNL1        0.2624
     12 O          64.2886   81.1611   14.2360 O.2     1  UNL1       -0.2669
     13 C          63.9297   83.7081   13.8698 C.ar    1  UNL1        0.0753
     14 C          64.7126   83.9976   15.1161 C.ar    1  UNL1        0.1036
     15 N          64.9246   85.4158   15.5561 N.ar    1  UNL1       -0.2422
     16 C          64.3536   86.5445   14.7498 C.ar    1  UNL1        0.0989
     17 C          63.5707   86.2550   13.5036 C.ar    1  UNL1        0.0209
     18 C          63.3587   84.8368   13.0636 C.ar    1  UNL1        0.0092
     19 C          60.1055   90.0917   11.9883 C.3     1  UNL1        0.2525
     20 O          59.5772   88.7784   11.4923 O.3     1  UNL1       -0.4717
     21 O          63.2903   84.8308    8.9175 O.3     1  UNL1       -0.4714
     22 C          63.1364   84.4942    7.4639 C.3     1  UNL1        0.2525
     23 C          60.2918   89.0620    8.5925 C.3     1  UNL1        0.1023
     24 N          59.4225   88.7710    7.4052 N.3     1  UNL1       -0.2664
     25 C          58.7104   87.4548    7.3017 C.3     1  UNL1        0.0899
     26 C          59.2651   89.7961    6.3215 C.3     1  UNL1        0.0899
@<TRIPOS>BOND
     1    19    20    1
     2    20     1    1
     3     1     2   ar
     4     2     3   ar
     5     3     7    1
     6     7     8   ar
     7     8     9   ar
     8     9    10    1
     9     9    11   ar
    10    11    12    2
    11    11    13   ar
    12    13    14   ar
    13    14    15   ar
    14    15    16   ar
    15    16    17   ar
    16    17    18   ar
    17     3     4   ar
    18     4    21    1
    19    21    22    1
    20     4     5   ar
    21     5     6   ar
    22     6    23    1
    23    23    24    1
    24    24    25    1
    25    24    26    1
    26     6     1   ar
    27    18     7   ar
    28    18    13   ar
@<TRIPOS>MOLECULE
*****
 26 28 0 0 0
SMALL
GASTEIGER

@<TRIPOS>ATOM
      1 C          62.8752   83.4635   12.6370 C.ar    1  UNL1        0.1362
      2 C          62.4255   84.8778   12.4189 C.ar    1  UNL1        0.0397
      3 C          62.6177   85.5280   11.0809 C.ar    1  UNL1        0.0384
      4 C          63.2595   84.7639    9.9610 C.ar    1  UNL1        0.1386
      5 C          63.7092   83.3497   10.1790 C.ar    1  UNL1        0.0370
      6 C          63.5171   82.6994   11.5170 C.ar    1  UNL1        0.0309
      7 C          62.1680   86.9423   10.8628 C.ar    1  UNL1        0.0206
      8 C          62.7514   88.0505   11.6881 C.ar    1  UNL1        0.0784
      9 N          62.3017   89.4648   11.4701 N.ar    1  UNL1       -0.2921
     10 C          62.8852   90.5731   12.2955 C.3     1  UNL1        0.1336
     11 C          61.2685   89.7709   10.4266 C.ar    1  UNL1        0.2624
     12 O          60.8188   91.1851   10.2085 O.2     1  UNL1       -0.2669
     13 C          60.6850   88.6626    9.6012 C.ar    1  UNL1        0.0753
     14 C          59.6518   88.9686    8.5577 C.ar    1  UNL1        0.1036
     15 N          59.0683   87.8603    7.7324 N.ar    1  UNL1       -0.2422
     16 C          59.5181   86.4461    7.9504 C.ar    1  UNL1        0.0989
     17 C          60.5512   86.1400    8.9939 C.ar    1  UNL1        0.0209
     18 C          61.1347   87.2483    9.8193 C.ar    1  UNL1        0.0092
     19 C          62.8048   83.6275   15.2289 C.3     1  UNL1        0.2525
     20 O          62.6831   82.8133   13.9750 O.3     1  UNL1       -0.4717
     21 O          63.4516   85.4142    8.6229 O.3     1  UNL1       -0.4714
     22 C          62.8848   84.7748    7.3900 C.3     1  UNL1        0.2525
     23 C          63.9668   81.2852   11.7351 C.3     1  UNL1        0.1023
     24 N          62.9663   80.1678   11.7109 N.3     1  UNL1       -0.2664
     25 C          62.6848   79.4407   10.4295 C.3     1  UNL1        0.0899
     26 C          62.2473   79.7776   12.9682 C.3     1  UNL1        0.0899
@<TRIPOS>BOND
     1    19    20    1
     2    20     1    1
     3     1     2   ar
     4     2     3   ar
     5     3     7    1
     6     7     8   ar
     7     8     9   ar
     8     9    10    1
     9     9    11   ar
    10    11    12    2
    11    11    13   ar
    12    13    14   ar
    13    14    15   ar
    14    15    16   ar
    15    16    17   ar
    16    17    18   ar
    17     3     4   ar
    18     4    21    1
    19    21    22    1
    20     4     5   ar
    21     5     6   ar
    22     6    23    1
    23    23    24    1
    24    24    25    1
    25    24    26    1
    26     6     1   ar
    27    18     7   ar
    28    18    13   ar
@<TRIPOS>MOLECULE
*****
 26 28 0 0 0
SMALL
GASTEIGER

@<TRIPOS>ATOM
      1 C          61.3343   88.7200    9.6310 C.ar    1  UNL1        0.1362
      2 C          61.9727   89.6036   10.6615 C.ar    1  UNL1        0.0397
      3 C          62.7065   88.9955   11.8199 C.ar    1  UNL1        0.0384
      4 C          62.8020   87.5041   11.9478 C.ar    1  UNL1        0.1386
      5 C          62.1637   86.6206   10.9173 C.ar    1  UNL1        0.0370
      6 C          61.4299   87.2285    9.7589 C.ar    1  UNL1        0.0309
      7 C          63.3449   89.8791   12.8504 C.ar    1  UNL1        0.0206
      8 C          63.1141   89.6176   14.3093 C.ar    1  UNL1        0.0784
      9 N          63.7525   90.5011   15.3397 N.ar    1  UNL1       -0.2921
     10 C          63.5217   90.2396   16.7987 C.3     1  UNL1        0.1336
     11 C          64.6216   91.6461   14.9114 C.ar    1  UNL1        0.2624
     12 O          65.2599   92.5297   15.9418 O.2     1  UNL1       -0.2669
     13 C          64.8524   91.9077   13.4524 C.ar    1  UNL1        0.0753
     14 C          65.7214   93.0527   13.0241 C.ar    1  UNL1        0.1036
     15 N          65.9522   93.3142   11.5652 N.ar    1  UNL1       -0.2422
     16 C          65.3139   92.4307   10.5347 C.ar    1  UNL1        0.0989
     17 C          64.4448   91.2857   10.9631 C.ar    1  UNL1        0.0209
     18 C          64.2140   91.0242   12.4219 C.ar    1  UNL1        0.0092
     19 C          59.4288   88.6125    7.8683 C.3     1  UNL1        0.2525
     20 O          60.6005   89.3280    8.4726 O.3     1  UNL1       -0.4717
     21 O          63.5359   86.8961   13.1062 O.3     1  UNL1       -0.4714
     22 C          63.5254   85.4092   13.3036 C.3     1  UNL1        0.2525
     23 C          60.7915   86.3450    8.7284 C.3     1  UNL1        0.1023
     24 N          61.6473   85.5137    7.8193 N.3     1  UNL1       -0.2664
     25 C          61.0702   84.9485    6.5554 C.3     1  UNL1        0.0899
     26 C          63.0803   85.2477    8.1740 C.3     1  UNL1        0.0899
@<TRIPOS>BOND
     1    19    20    1
     2    20     1    1
     3     1     2   ar
     4     2     3   ar
     5     3     7    1
     6     7     8   ar
     7     8     9   ar
     8     9    10    1
     9     9    11   ar
    10    11    12    2
    11    11    13   ar
    12    13    14   ar
    13    14    15   ar
    14    15    16   ar
    15    16    17   ar
    16    17    18   ar
    17     3     4   ar
    18     4    21    1
    19    21    22    1
    20     4     5   ar
    21     5     6   ar
    22     6    23    1
    23    23    24    1
    24    24    25    1
    25    24    26    1
    26     6     1   ar
    27    18     7   ar
    28    18    13   ar
@<TRIPOS>MOLECULE
*****
 26 28 0 0 0
SMALL
GASTEIGER

@<TRIPOS>ATOM
      1 C          63.8865   90.1311   12.8865 C.ar    1  UNL1        0.1362
      2 C          64.2280   91.2095   11.9014 C.ar    1  UNL1        0.0397
      3 C          65.4096   92.1010   12.1449 C.ar    1  UNL1        0.0384
      4 C          66.2497   91.9140   13.3734 C.ar    1  UNL1        0.1386
      5 C          65.9082   90.8356   14.3585 C.ar    1  UNL1        0.0370
      6 C          64.7267   89.9442   14.1151 C.ar    1  UNL1        0.0309
      7 C          65.7511   93.1794   11.1597 C.ar    1  UNL1        0.0206
      8 C          64.9973   94.4761   11.1760 C.ar    1  UNL1        0.0784
      9 N          65.3387   95.5545   10.1909 N.ar    1  UNL1       -0.2921
     10 C          64.5849   96.8513   10.2071 C.3     1  UNL1        0.1336
     11 C          66.4340   95.3362    9.1895 C.ar    1  UNL1        0.2624
     12 O          66.7754   96.4146    8.2044 O.2     1  UNL1       -0.2669
     13 C          67.1878   94.0395    9.1733 C.ar    1  UNL1        0.0753
     14 C          68.2831   93.8212    8.1719 C.ar    1  UNL1        0.1036
     15 N          69.0369   92.5245    8.1557 N.ar    1  UNL1       -0.2422
     16 C          68.6954   91.4461    9.1408 C.ar    1  UNL1        0.0989
     17 C          67.6002   91.6644   10.1421 C.ar    1  UNL1        0.0209
     18 C          66.8464   92.9611   10.1584 C.ar    1  UNL1        0.0092
     19 C          61.6301   89.6636   11.6867 C.3     1  UNL1        0.2525
     20 O          62.7050   89.2397   12.6431 O.3     1  UNL1       -0.4717
     21 O          67.4313   92.8055   13.6168 O.3     1  UNL1       -0.4714
     22 C          68.4554   92.4290   14.6461 C.3     1  UNL1        0.2525
     23 C          64.3852   88.8658   15.1002 C.3     1  UNL1        0.1023
     24 N          63.5156   89.1774   16.2819 N.3     1  UNL1       -0.2664
     25 C          62.9183   88.0626   17.0883 C.3     1  UNL1        0.0899
     26 C          63.2433   90.6040   16.6573 C.3     1  UNL1        0.0899
@<TRIPOS>BOND
     1    19    20    1
     2    20     1    1
     3     1     2   ar
     4     2     3   ar
     5     3     7    1
     6     7     8   ar
     7     8     9   ar
     8     9    10    1
     9     9    11   ar
    10    11    12    2
    11    11    13   ar
    12    13    14   ar
    13    14    15   ar
    14    15    16   ar
    15    16    17   ar
    16    17    18   ar
    17     3     4   ar
    18     4    21    1
    19    21    22    1
    20     4     5   ar
    21     5     6   ar
    22     6    23    1
    23    23    24    1
    24    24    25    1
    25    24    26    1
    26     6     1   ar
    27    18     7   ar
    28    18    13   ar
@<TRIPOS>MOLECULE
*****
 26 28 0 0 0
SMALL
GASTEIGER

@<TRIPOS>ATOM
      1 C          61.9968   89.2434   10.6612 C.ar    1  UNL1        0.1362
      2 C          62.8280   90.2959   11.3330 C.ar    1  UNL1        0.0397
      3 C          63.6675   89.9413   12.5245 C.ar    1  UNL1        0.0384
      4 C          63.6757   88.5343   13.0442 C.ar    1  UNL1        0.1386
      5 C          62.8445   87.4818   12.3724 C.ar    1  UNL1        0.0370
      6 C          62.0051   87.8363   11.1809 C.ar    1  UNL1        0.0309
      7 C          64.4987   90.9939   13.1963 C.ar    1  UNL1        0.0206
      8 C          64.5633   91.0560   14.6936 C.ar    1  UNL1        0.0784
      9 N          65.3945   92.1086   15.3654 N.ar    1  UNL1       -0.2921
     10 C          65.4591   92.1707   16.8628 C.3     1  UNL1        0.1336
     11 C          66.1611   93.0989   14.5399 C.ar    1  UNL1        0.2624
     12 O          66.9922   94.1515   15.2117 O.2     1  UNL1       -0.2669
     13 C          66.0965   93.0368   13.0425 C.ar    1  UNL1        0.0753
     14 C          66.8630   94.0272   12.2170 C.ar    1  UNL1        0.1036
     15 N          66.7984   93.9650   10.7197 N.ar    1  UNL1       -0.2422
     16 C          65.9672   92.9125   10.0479 C.ar    1  UNL1        0.0989
     17 C          65.2007   91.9221   10.8734 C.ar    1  UNL1        0.0209
     18 C          65.2653   91.9843   12.3707 C.ar    1  UNL1        0.0092
     19 C          59.7194   89.9831    9.6534 C.3     1  UNL1        0.2525
     20 O          61.1574   89.5979    9.4698 O.3     1  UNL1       -0.4717
     21 O          64.5152   88.1797   14.2357 O.3     1  UNL1       -0.4714
     22 C          64.4460   86.7990   14.8178 C.3     1  UNL1        0.2525
     23 C          61.1739   86.7838   10.5091 C.3     1  UNL1        0.1023
     24 N          61.5016   86.3481    9.1117 N.3     1  UNL1       -0.2664
     25 C          60.4624   86.4411    8.0340 C.3     1  UNL1        0.0899
     26 C          62.8684   85.8194    8.7920 C.3     1  UNL1        0.0899
@<TRIPOS>BOND
     1    19    20    1
     2    20     1    1
     3     1     2   ar
     4     2     3   ar
     5     3     7    1
     6     7     8   ar
     7     8     9   ar
     8     9    10    1
     9     9    11   ar
    10    11    12    2
    11    11    13   ar
    12    13    14   ar
    13    14    15   ar
    14    15    16   ar
    15    16    17   ar
    16    17    18   ar
    17     3     4   ar
    18     4    21    1
    19    21    22    1
    20     4     5   ar
    21     5     6   ar
    22     6    23    1
    23    23    24    1
    24    24    25    1
    25    24    26    1
    26     6     1   ar
    27    18     7   ar
    28    18    13   ar
