@<TRIPOS>MOLECULE
*****
 14 14 0 0 0
SMALL
GASTEIGER

@<TRIPOS>ATOM
      1 C          63.4623   84.1541   10.3754 C.ar    1  UNL1       -0.0221
      2 C          64.3195   83.0786   10.9740 C.ar    1  UNL1       -0.0030
      3 C          64.3364   82.8729   12.4597 C.ar    1  UNL1        0.0143
      4 C          63.4961   83.7427   13.3469 C.ar    1  UNL1        0.0495
      5 C          62.6389   84.8183   12.7484 C.ar    1  UNL1        0.0143
      6 C          62.6220   85.0240   11.2626 C.ar    1  UNL1       -0.0030
      7 C          62.6941   85.5170    8.3013 C.3     1  UNL1        0.0050
      8 C          63.4454   84.3598    8.8897 C.3     1  UNL1        0.0264
      9 N          63.5130   83.5370   14.8326 N.pl3   1  UNL1       -0.2930
     10 H          64.2298   83.0050   15.2478 H       1  UNL1        0.1538
     11 C          62.4378   84.1420   15.6858 C.2     1  UNL1        0.2056
     12 N          62.6386   85.4972   16.2965 N.2     1  UNL1       -0.0679
     13 O          61.5633   86.1022   17.1497 O.2     1  UNL1       -0.4077
     14 H          61.6888   86.9487   17.5312 H       1  UNL1        0.3278
@<TRIPOS>BOND
     1     7     8    1
     2     8     1    1
     3     1     2   ar
     4     2     3   ar
     5     3     4   ar
     6     4     9    1
     7     9    11    1
     8    11    12    2
     9    12    13    1
    10     4     5   ar
    11     5     6   ar
    12     6     1   ar
    13     9    10    1
    14    13    14    1
@<TRIPOS>MOLECULE
*****
 14 14 0 0 0
SMALL
GASTEIGER

@<TRIPOS>ATOM
      1 C          63.0439   84.8341    9.7895 C.ar    1  UNL1       -0.0221
      2 C          62.4299   85.3917   11.0393 C.ar    1  UNL1       -0.0030
      3 C          62.5802   84.6597   12.3398 C.ar    1  UNL1        0.0143
      4 C          63.3446   83.3700   12.3906 C.ar    1  UNL1        0.0495
      5 C          63.9585   82.8124   11.1408 C.ar    1  UNL1        0.0143
      6 C          63.8082   83.5445    9.8402 C.ar    1  UNL1       -0.0030
      7 C          62.6110   84.8046    7.2279 C.3     1  UNL1        0.0050
      8 C          62.8935   85.5662    8.4889 C.3     1  UNL1        0.0264
      9 N          63.4949   82.6380   13.6912 N.pl3   1  UNL1       -0.2930
     10 H          64.3881   82.5159   14.0869 H       1  UNL1        0.1538
     11 C          62.2845   82.0920   14.3888 C.2     1  UNL1        0.2056
     12 N          61.3626   81.1538   13.6676 N.2     1  UNL1       -0.0679
     13 O          60.1522   80.6078   14.3653 O.2     1  UNL1       -0.4077
     14 H          59.5763   80.0217   13.9148 H       1  UNL1        0.3278
@<TRIPOS>BOND
     1     7     8    1
     2     8     1    1
     3     1     2   ar
     4     2     3   ar
     5     3     4   ar
     6     4     9    1
     7     9    11    1
     8    11    12    2
     9    12    13    1
    10     4     5   ar
    11     5     6   ar
    12     6     1   ar
    13     9    10    1
    14    13    14    1
@<TRIPOS>MOLECULE
*****
 14 14 0 0 0
SMALL
GASTEIGER

@<TRIPOS>ATOM
      1 C          63.4316   83.4241   11.2626 C.ar    1  UNL1       -0.0221
      2 C          63.7187   83.6559    9.8087 C.ar    1  UNL1       -0.0030
      3 C          63.1822   84.8777    9.1237 C.ar    1  UNL1        0.0143
      4 C          62.3585   85.8678    9.8926 C.ar    1  UNL1        0.0495
      5 C          62.0713   85.6361   11.3464 C.ar    1  UNL1        0.0143
      6 C          62.6079   84.4142   12.0314 C.ar    1  UNL1       -0.0030
      7 C          63.0234   81.1923   12.5283 C.3     1  UNL1        0.0050
      8 C          63.9681   82.2023   11.9476 C.3     1  UNL1        0.0264
      9 N          61.8219   87.0896    9.2075 N.pl3   1  UNL1       -0.2930
     10 H          62.4399   87.7865    8.8886 H       1  UNL1        0.1538
     11 C          60.3439   87.2497    9.0085 C.2     1  UNL1        0.2056
     12 N          59.6334   86.4297    7.9727 N.2     1  UNL1       -0.0679
     13 O          58.1553   86.5899    7.7737 O.2     1  UNL1       -0.4077
     14 H          57.7115   86.0776    7.1267 H       1  UNL1        0.3278
@<TRIPOS>BOND
     1     7     8    1
     2     8     1    1
     3     1     2   ar
     4     2     3   ar
     5     3     4   ar
     6     4     9    1
     7     9    11    1
     8    11    12    2
     9    12    13    1
    10     4     5   ar
    11     5     6   ar
    12     6     1   ar
    13     9    10    1
    14    13    14    1
@<TRIPOS>MOLECULE
*****
 14 14 0 0 0
SMALL
GASTEIGER

@<TRIPOS>ATOM
      1 C          63.5406   83.4094   11.3871 C.ar    1  UNL1       -0.0221
      2 C          62.7079   84.4233   12.1142 C.ar    1  UNL1       -0.0030
      3 C          62.1420   85.5989   11.3741 C.ar    1  UNL1        0.0143
      4 C          62.4088   85.7606    9.9069 C.ar    1  UNL1        0.0495
      5 C          63.2414   84.7467    9.1798 C.ar    1  UNL1        0.0143
      6 C          63.8073   83.5711    9.9199 C.ar    1  UNL1       -0.0030
      7 C          63.1891   81.1857   12.6838 C.3     1  UNL1        0.0050
      8 C          64.1064   82.2338   12.1272 C.3     1  UNL1        0.0264
      9 N          61.8429   86.9362    9.1668 N.pl3   1  UNL1       -0.2930
     10 H          62.4433   87.6357    8.8211 H       1  UNL1        0.1538
     11 C          60.3623   87.0461    8.9534 C.2     1  UNL1        0.2056
     12 N          59.7105   86.3063    7.8229 N.2     1  UNL1       -0.0679
     13 O          58.2298   86.4162    7.6095 O.2     1  UNL1       -0.4077
     14 H          57.8226   85.9541    6.9034 H       1  UNL1        0.3278
@<TRIPOS>BOND
     1     7     8    1
     2     8     1    1
     3     1     2   ar
     4     2     3   ar
     5     3     4   ar
     6     4     9    1
     7     9    11    1
     8    11    12    2
     9    12    13    1
    10     4     5   ar
    11     5     6   ar
    12     6     1   ar
    13     9    10    1
    14    13    14    1
@<TRIPOS>MOLECULE
*****
 14 14 0 0 0
SMALL
GASTEIGER

@<TRIPOS>ATOM
      1 C          61.8919   85.5209    7.9646 C.ar    1  UNL1       -0.0221
      2 C          60.5563   86.1802    7.7870 C.ar    1  UNL1       -0.0030
      3 C          59.9502   86.9625    8.9142 C.ar    1  UNL1        0.0143
      4 C          60.6797   87.0856   10.2190 C.ar    1  UNL1        0.0495
      5 C          62.0153   86.4263   10.3967 C.ar    1  UNL1        0.0143
      6 C          62.6214   85.6440    9.2694 C.ar    1  UNL1       -0.0030
      7 C          61.6269   84.2157    5.7339 C.3     1  UNL1        0.0050
      8 C          62.4980   84.7386    6.8374 C.3     1  UNL1        0.0264
      9 N          60.0736   87.8679   11.3463 N.pl3   1  UNL1       -0.2930
     10 H          59.3523   87.4730   11.8876 H       1  UNL1        0.1538
     11 C          60.5665   89.2519   11.6488 C.2     1  UNL1        0.2056
     12 N          61.8866   89.4448   12.3345 N.2     1  UNL1       -0.0679
     13 O          62.3794   90.8289   12.6370 O.2     1  UNL1       -0.4077
     14 H          63.2040   90.9494   13.0654 H       1  UNL1        0.3278
@<TRIPOS>BOND
     1     7     8    1
     2     8     1    1
     3     1     2   ar
     4     2     3   ar
     5     3     4   ar
     6     4     9    1
     7     9    11    1
     8    11    12    2
     9    12    13    1
    10     4     5   ar
    11     5     6   ar
    12     6     1   ar
    13     9    10    1
    14    13    14    1
@<TRIPOS>MOLECULE
*****
 14 14 0 0 0
SMALL
GASTEIGER

@<TRIPOS>ATOM
      1 C          63.3779   84.1749   10.1106 C.ar    1  UNL1       -0.0221
      2 C          63.2223   84.8181    8.7645 C.ar    1  UNL1       -0.0030
      3 C          62.2545   85.9493    8.5811 C.ar    1  UNL1        0.0143
      4 C          61.4422   86.4374    9.7439 C.ar    1  UNL1        0.0495
      5 C          61.5978   85.7942   11.0900 C.ar    1  UNL1        0.0143
      6 C          62.5657   84.6630   11.2733 C.ar    1  UNL1       -0.0030
      7 C          64.4087   82.3153   11.6036 C.3     1  UNL1        0.0050
      8 C          64.3458   83.0437   10.2939 C.3     1  UNL1        0.0264
      9 N          60.4744   87.5686    9.5605 N.pl3   1  UNL1       -0.2930
     10 H          59.8170   87.5402    8.8282 H       1  UNL1        0.1538
     11 C          60.5081   88.7431   10.4929 C.2     1  UNL1        0.2056
     12 N          59.9016   88.6328   11.8603 N.2     1  UNL1       -0.0679
     13 O          59.9354   89.8074   12.7927 O.2     1  UNL1       -0.4077
     14 H          59.5565   89.7385   13.6469 H       1  UNL1        0.3278
@<TRIPOS>BOND
     1     7     8    1
     2     8     1    1
     3     1     2   ar
     4     2     3   ar
     5     3     4   ar
     6     4     9    1
     7     9    11    1
     8    11    12    2
     9    12    13    1
    10     4     5   ar
    11     5     6   ar
    12     6     1   ar
    13     9    10    1
    14    13    14    1
@<TRIPOS>MOLECULE
*****
 14 14 0 0 0
SMALL
GASTEIGER

@<TRIPOS>ATOM
      1 C          62.3089   85.5921    9.8512 C.ar    1  UNL1       -0.0221
      2 C          63.1894   84.5937    9.1599 C.ar    1  UNL1       -0.0030
      3 C          63.9645   83.5930    9.9648 C.ar    1  UNL1        0.0143
      4 C          63.8591   83.5907   11.4610 C.ar    1  UNL1        0.0495
      5 C          62.9786   84.5890   12.1524 C.ar    1  UNL1        0.0143
      6 C          62.2035   85.5897   11.3475 C.ar    1  UNL1       -0.0030
      7 C          60.5544   86.1255    8.0109 C.3     1  UNL1        0.0050
      8 C          61.5338   86.5927    9.0463 C.3     1  UNL1        0.0264
      9 N          64.6342   82.5900   12.2659 N.pl3   1  UNL1       -0.2930
     10 H          65.6185   82.5977   12.2450 H       1  UNL1        0.1538
     11 C          63.9097   81.5777   13.1027 C.2     1  UNL1        0.2056
     12 N          62.7672   80.8010   12.5184 N.2     1  UNL1       -0.0679
     13 O          62.0427   79.7887   13.3552 O.2     1  UNL1       -0.4077
     14 H          61.3290   79.3035   12.9902 H       1  UNL1        0.3278
@<TRIPOS>BOND
     1     7     8    1
     2     8     1    1
     3     1     2   ar
     4     2     3   ar
     5     3     4   ar
     6     4     9    1
     7     9    11    1
     8    11    12    2
     9    12    13    1
    10     4     5   ar
    11     5     6   ar
    12     6     1   ar
    13     9    10    1
    14    13    14    1
@<TRIPOS>MOLECULE
*****
 14 14 0 0 0
SMALL
GASTEIGER

@<TRIPOS>ATOM
      1 C          63.2626   90.1432   11.5676 C.ar    1  UNL1       -0.0221
      2 C          64.0066   91.4166   11.2941 C.ar    1  UNL1       -0.0030
      3 C          64.9218   91.9890   12.3355 C.ar    1  UNL1        0.0143
      4 C          65.0932   91.2880   13.6505 C.ar    1  UNL1        0.0495
      5 C          64.3492   90.0146   13.9240 C.ar    1  UNL1        0.0143
      6 C          63.4339   89.4422   12.8825 C.ar    1  UNL1       -0.0030
      7 C          62.0665   88.0975   10.5024 C.3     1  UNL1        0.0050
      8 C          62.3473   89.5708   10.5261 C.3     1  UNL1        0.0264
      9 N          66.0085   91.8604   14.6919 N.pl3   1  UNL1       -0.2930
     10 H          65.6398   92.3992   15.4288 H       1  UNL1        0.1538
     11 C          67.4855   91.6120   14.6106 C.2     1  UNL1        0.2056
     12 N          68.2806   92.1827   13.4739 N.2     1  UNL1       -0.0679
     13 O          69.7577   91.9342   13.3926 O.2     1  UNL1       -0.4077
     14 H          70.2544   92.2907   12.6826 H       1  UNL1        0.3278
@<TRIPOS>BOND
     1     7     8    1
     2     8     1    1
     3     1     2   ar
     4     2     3   ar
     5     3     4   ar
     6     4     9    1
     7     9    11    1
     8    11    12    2
     9    12    13    1
    10     4     5   ar
    11     5     6   ar
    12     6     1   ar
    13     9    10    1
    14    13    14    1
@<TRIPOS>MOLECULE
*****
 14 14 0 0 0
SMALL
GASTEIGER

@<TRIPOS>ATOM
      1 C          62.7176   85.0381    8.4582 C.ar    1  UNL1       -0.0221
      2 C          63.4272   84.0675    9.3552 C.ar    1  UNL1       -0.0030
      3 C          63.3032   84.1944   10.8446 C.ar    1  UNL1        0.0143
      4 C          62.4698   85.2917   11.4372 C.ar    1  UNL1        0.0495
      5 C          61.7602   86.2622   10.5402 C.ar    1  UNL1        0.0143
      6 C          61.8841   86.1354    9.0507 C.ar    1  UNL1       -0.0030
      7 C          61.6688   84.4502    6.1551 C.3     1  UNL1        0.0050
      8 C          62.8416   84.9113    6.9687 C.3     1  UNL1        0.0264
      9 N          62.3458   85.4185   12.9266 N.pl3   1  UNL1       -0.2930
     10 H          61.8173   86.1522   13.3159 H       1  UNL1        0.1538
     11 C          63.0272   84.4274   13.8230 C.2     1  UNL1        0.2056
     12 N          62.2116   83.4585   14.6268 N.2     1  UNL1       -0.0679
     13 O          62.8930   82.4674   15.5232 O.2     1  UNL1       -0.4077
     14 H          62.3835   81.8621   16.0252 H       1  UNL1        0.3278
@<TRIPOS>BOND
     1     7     8    1
     2     8     1    1
     3     1     2   ar
     4     2     3   ar
     5     3     4   ar
     6     4     9    1
     7     9    11    1
     8    11    12    2
     9    12    13    1
    10     4     5   ar
    11     5     6   ar
    12     6     1   ar
    13     9    10    1
    14    13    14    1
