@<TRIPOS>MOLECULE
*****
 24 29 0 0 0
SMALL
GASTEIGER

@<TRIPOS>ATOM
      1 C          62.5439   89.9790   10.7389 C.3     1  UNL1        0.0901
      2 N          63.0593   90.2243   11.2953 N.3     1  UNL1       -0.2661
      3 C          63.9041   91.4521   11.4643 C.3     1  UNL1        0.0845
      4 C          63.0207   91.3095   10.2605 C.3     1  UNL1        0.0466
      5 C          62.1759   90.0816   10.0915 C.ar    1  UNL1       -0.0200
      6 C          61.2925   89.9389    8.8877 C.ar    1  UNL1        0.0357
      7 C          60.4476   88.7110    8.7186 C.ar    1  UNL1        0.1761
      8 C          60.4862   87.6258    9.7534 C.ar    1  UNL1        0.1761
      9 C          61.3696   87.7686   10.9573 C.ar    1  UNL1        0.0369
     10 C          62.2144   88.9964   11.1263 C.ar    1  UNL1       -0.0081
     11 C          63.0978   89.1391   12.3302 C.3     1  UNL1        0.0845
     12 C          63.9812   89.2817   13.5341 C.3     1  UNL1        0.0466
     13 C          64.8261   90.5097   13.7030 C.ar    1  UNL1       -0.0200
     14 C          65.7094   90.6523   14.9069 C.ar    1  UNL1        0.0357
     15 C          66.5543   91.8802   15.0759 C.ar    1  UNL1        0.1761
     16 C          66.5158   92.9654   14.0411 C.ar    1  UNL1        0.1761
     17 C          65.6324   92.8227   12.8373 C.ar    1  UNL1        0.0369
     18 C          64.7875   91.5948   12.6683 C.ar    1  UNL1       -0.0081
     19 O          67.4528   94.0533   14.4751 O.3     1  UNL1       -0.4346
     20 C          68.0705   93.6405   15.7782 C.3     1  UNL1        0.4294
     21 O          67.5152   92.2974   16.1496 O.3     1  UNL1       -0.4346
     22 O          59.5491   86.5380    9.3194 O.3     1  UNL1       -0.4346
     23 C          58.9315   86.9508    8.0163 C.3     1  UNL1        0.4294
     24 O          59.4868   88.2938    7.6450 O.3     1  UNL1       -0.4346
@<TRIPOS>BOND
     1     1     2    1
     2     2     3    1
     3     3     4    1
     4     4     5    1
     5     5     6   ar
     6     6     7   ar
     7     7     8   ar
     8     8     9   ar
     9     9    10   ar
    10    10    11    1
    11    11    12    1
    12    12    13    1
    13    13    14   ar
    14    14    15   ar
    15    15    16   ar
    16    16    17   ar
    17    17    18   ar
    18    16    19    1
    19    19    20    1
    20    20    21    1
    21     8    22    1
    22    22    23    1
    23    23    24    1
    24    11     2    1
    25    18    13   ar
    26    18     3    1
    27    10     5   ar
    28    21    15    1
    29    24     7    1
@<TRIPOS>MOLECULE
*****
 24 29 0 0 0
SMALL
GASTEIGER

@<TRIPOS>ATOM
      1 C          62.6612   89.3394   11.3900 C.3     1  UNL1        0.0901
      2 N          63.1877   89.8287   11.7347 N.3     1  UNL1       -0.2661
      3 C          64.0076   89.7607   12.9889 C.3     1  UNL1        0.0845
      4 C          63.0907   88.6291   12.6300 C.3     1  UNL1        0.0466
      5 C          62.2707   88.6971   11.3758 C.ar    1  UNL1       -0.0200
      6 C          61.3538   87.5656   11.0169 C.ar    1  UNL1        0.0357
      7 C          60.5338   87.6336    9.7627 C.ar    1  UNL1        0.1761
      8 C          60.6308   88.8332    8.8673 C.ar    1  UNL1        0.1761
      9 C          61.5478   89.9647    9.2263 C.ar    1  UNL1        0.0369
     10 C          62.3677   89.8967   10.4805 C.ar    1  UNL1       -0.0081
     11 C          63.2847   91.0283   10.8394 C.3     1  UNL1        0.0845
     12 C          64.2016   92.1599   11.1982 C.3     1  UNL1        0.0466
     13 C          65.0216   92.0918   12.4525 C.ar    1  UNL1       -0.0200
     14 C          65.9385   93.2234   12.8113 C.ar    1  UNL1        0.0357
     15 C          66.7585   93.1554   14.0655 C.ar    1  UNL1        0.1761
     16 C          66.6615   91.9558   14.9609 C.ar    1  UNL1        0.1761
     17 C          65.7446   90.8242   14.6020 C.ar    1  UNL1        0.0369
     18 C          64.9246   90.8923   13.3478 C.ar    1  UNL1       -0.0081
     19 O          67.5852   92.1690   16.1233 O.3     1  UNL1       -0.4346
     20 C          68.2531   93.5004   15.9464 C.3     1  UNL1        0.4294
     21 O          67.7422   94.1100   14.6746 O.3     1  UNL1       -0.4346
     22 O          59.7071   88.6199    7.7050 O.3     1  UNL1       -0.4346
     23 C          59.0392   87.2886    7.8819 C.3     1  UNL1        0.4294
     24 O          59.5502   86.6790    9.1536 O.3     1  UNL1       -0.4346
@<TRIPOS>BOND
     1     1     2    1
     2     2     3    1
     3     3     4    1
     4     4     5    1
     5     5     6   ar
     6     6     7   ar
     7     7     8   ar
     8     8     9   ar
     9     9    10   ar
    10    10    11    1
    11    11    12    1
    12    12    13    1
    13    13    14   ar
    14    14    15   ar
    15    15    16   ar
    16    16    17   ar
    17    17    18   ar
    18    16    19    1
    19    19    20    1
    20    20    21    1
    21     8    22    1
    22    22    23    1
    23    23    24    1
    24    11     2    1
    25    18    13   ar
    26    18     3    1
    27    10     5   ar
    28    21    15    1
    29    24     7    1
@<TRIPOS>MOLECULE
*****
 24 29 0 0 0
SMALL
GASTEIGER

@<TRIPOS>ATOM
      1 C          64.6256   91.5019   12.4555 C.3     1  UNL1        0.0901
      2 N          64.1013   91.0073   12.1153 N.3     1  UNL1       -0.2661
      3 C          63.2872   91.0567   10.8564 C.3     1  UNL1        0.0845
      4 C          64.2013   92.1942   11.2036 C.3     1  UNL1        0.0466
      5 C          65.0154   92.1447   12.4624 C.ar    1  UNL1       -0.0200
      6 C          65.9295   93.2821   12.8097 C.ar    1  UNL1        0.0357
      7 C          66.7436   93.2327   14.0685 C.ar    1  UNL1        0.1761
      8 C          66.6436   92.0457   14.9802 C.ar    1  UNL1        0.1761
      9 C          65.7295   90.9083   14.6330 C.ar    1  UNL1        0.0369
     10 C          64.9154   90.9578   13.3741 C.ar    1  UNL1       -0.0081
     11 C          64.0012   89.8203   13.0269 C.3     1  UNL1        0.0845
     12 C          63.0871   88.6828   12.6798 C.3     1  UNL1        0.0466
     13 C          62.2729   88.7323   11.4208 C.ar    1  UNL1       -0.0200
     14 C          61.3588   87.5949   11.0737 C.ar    1  UNL1        0.0357
     15 C          60.5447   87.6443    9.8148 C.ar    1  UNL1        0.1761
     16 C          60.6447   88.8313    8.9031 C.ar    1  UNL1        0.1761
     17 C          61.5589   89.9687    9.2503 C.ar    1  UNL1        0.0369
     18 C          62.3730   89.9192   10.5092 C.ar    1  UNL1       -0.0081
     19 O          59.7267   88.6007    7.7395 O.3     1  UNL1       -0.4346
     20 C          59.0593   87.2712    7.9320 C.3     1  UNL1        0.4294
     21 O          59.5648   86.6802    9.2147 O.3     1  UNL1       -0.4346
     22 O          67.5616   92.2764   16.1438 O.3     1  UNL1       -0.4346
     23 C          68.2291   93.6058   15.9513 C.3     1  UNL1        0.4294
     24 O          67.7235   94.1969   14.6687 O.3     1  UNL1       -0.4346
@<TRIPOS>BOND
     1     1     2    1
     2     2     3    1
     3     3     4    1
     4     4     5    1
     5     5     6   ar
     6     6     7   ar
     7     7     8   ar
     8     8     9   ar
     9     9    10   ar
    10    10    11    1
    11    11    12    1
    12    12    13    1
    13    13    14   ar
    14    14    15   ar
    15    15    16   ar
    16    16    17   ar
    17    17    18   ar
    18    16    19    1
    19    19    20    1
    20    20    21    1
    21     8    22    1
    22    22    23    1
    23    23    24    1
    24    11     2    1
    25    18    13   ar
    26    18     3    1
    27    10     5   ar
    28    21    15    1
    29    24     7    1
@<TRIPOS>MOLECULE
*****
 24 29 0 0 0
SMALL
GASTEIGER

@<TRIPOS>ATOM
      1 C          64.3955   90.6397   13.0537 C.3     1  UNL1        0.0901
      2 N          63.8842   90.3944   12.4935 N.3     1  UNL1       -0.2661
      3 C          63.0281   89.1741   12.3265 C.3     1  UNL1        0.0845
      4 C          63.8985   89.3193   13.5395 C.3     1  UNL1        0.0466
      5 C          64.7546   90.5396   13.7065 C.ar    1  UNL1       -0.0200
      6 C          65.6250   90.6849   14.9194 C.ar    1  UNL1        0.0357
      7 C          66.4811   91.9052   15.0864 C.ar    1  UNL1        0.1761
      8 C          66.4669   92.9803   14.0405 C.ar    1  UNL1        0.1761
      9 C          65.5965   92.8350   12.8276 C.ar    1  UNL1        0.0369
     10 C          64.7403   91.6147   12.6606 C.ar    1  UNL1       -0.0081
     11 C          63.8699   91.4694   11.4475 C.3     1  UNL1        0.0845
     12 C          62.9995   91.3242   10.2345 C.3     1  UNL1        0.0466
     13 C          62.1434   90.1038   10.0676 C.ar    1  UNL1       -0.0200
     14 C          61.2730   89.9586    8.8546 C.ar    1  UNL1        0.0357
     15 C          60.4169   88.7383    8.6876 C.ar    1  UNL1        0.1761
     16 C          60.4311   87.6632    9.7335 C.ar    1  UNL1        0.1761
     17 C          61.3015   87.8084   10.9465 C.ar    1  UNL1        0.0369
     18 C          62.1577   89.0288   11.1134 C.ar    1  UNL1       -0.0081
     19 O          59.4875   86.5812    9.2990 O.3     1  UNL1       -0.4346
     20 C          58.8901   86.9876    7.9845 C.3     1  UNL1        0.4294
     21 O          59.4644   88.3207    7.6066 O.3     1  UNL1       -0.4346
     22 O          67.4104   94.0622   14.4751 O.3     1  UNL1       -0.4346
     23 C          68.0079   93.6559   15.7895 C.3     1  UNL1        0.4294
     24 O          67.4336   92.3228   16.1674 O.3     1  UNL1       -0.4346
@<TRIPOS>BOND
     1     1     2    1
     2     2     3    1
     3     3     4    1
     4     4     5    1
     5     5     6   ar
     6     6     7   ar
     7     7     8   ar
     8     8     9   ar
     9     9    10   ar
    10    10    11    1
    11    11    12    1
    12    12    13    1
    13    13    14   ar
    14    14    15   ar
    15    15    16   ar
    16    16    17   ar
    17    17    18   ar
    18    16    19    1
    19    19    20    1
    20    20    21    1
    21     8    22    1
    22    22    23    1
    23    23    24    1
    24    11     2    1
    25    18    13   ar
    26    18     3    1
    27    10     5   ar
    28    21    15    1
    29    24     7    1
@<TRIPOS>MOLECULE
*****
 24 29 0 0 0
SMALL
GASTEIGER

@<TRIPOS>ATOM
      1 C          63.7139   85.2234   14.0871 C.3     1  UNL1        0.0901
      2 N          63.8260   86.0040   13.9713 N.3     1  UNL1       -0.2661
      3 C          64.5194   87.0838   14.7479 C.3     1  UNL1        0.0845
      4 C          64.4989   85.6784   15.2717 C.3     1  UNL1        0.0466
      5 C          63.8054   84.5986   14.4951 C.ar    1  UNL1       -0.0200
      6 C          63.7849   83.1932   15.0187 C.ar    1  UNL1        0.0357
      7 C          63.0914   82.1134   14.2421 C.ar    1  UNL1        0.1761
      8 C          62.4185   82.4390   12.9416 C.ar    1  UNL1        0.1761
      9 C          62.4391   83.8445   12.4179 C.ar    1  UNL1        0.0369
     10 C          63.1325   84.9242   13.1946 C.ar    1  UNL1       -0.0081
     11 C          63.1531   86.3297   12.6708 C.3     1  UNL1        0.0845
     12 C          63.1736   87.7352   12.1470 C.3     1  UNL1        0.0466
     13 C          63.8671   88.8149   12.9238 C.ar    1  UNL1       -0.0200
     14 C          63.8876   90.2204   12.4000 C.ar    1  UNL1        0.0357
     15 C          64.5810   91.3001   13.1767 C.ar    1  UNL1        0.1761
     16 C          65.2539   90.9745   14.4771 C.ar    1  UNL1        0.1761
     17 C          65.2334   89.5691   15.0009 C.ar    1  UNL1        0.0369
     18 C          64.5399   88.4893   14.2241 C.ar    1  UNL1       -0.0081
     19 O          65.8539   92.2384   15.0179 O.3     1  UNL1       -0.4346
     20 C          65.5518   93.3453   14.0516 C.3     1  UNL1        0.4294
     21 O          64.7651   92.7654   12.9137 O.3     1  UNL1       -0.4346
     22 O          61.8186   81.1751   12.4010 O.3     1  UNL1       -0.4346
     23 C          62.1207   80.0683   13.3671 C.3     1  UNL1        0.4294
     24 O          62.9074   80.6481   14.5051 O.3     1  UNL1       -0.4346
@<TRIPOS>BOND
     1     1     2    1
     2     2     3    1
     3     3     4    1
     4     4     5    1
     5     5     6   ar
     6     6     7   ar
     7     7     8   ar
     8     8     9   ar
     9     9    10   ar
    10    10    11    1
    11    11    12    1
    12    12    13    1
    13    13    14   ar
    14    14    15   ar
    15    15    16   ar
    16    16    17   ar
    17    17    18   ar
    18    16    19    1
    19    19    20    1
    20    20    21    1
    21     8    22    1
    22    22    23    1
    23    23    24    1
    24    11     2    1
    25    18    13   ar
    26    18     3    1
    27    10     5   ar
    28    21    15    1
    29    24     7    1
@<TRIPOS>MOLECULE
*****
 24 29 0 0 0
SMALL
GASTEIGER

@<TRIPOS>ATOM
      1 C          63.9590   88.3335   13.3511 C.3     1  UNL1        0.0901
      2 N          63.8324   87.5567   13.4774 N.3     1  UNL1       -0.2661
      3 C          63.1535   86.4710   12.6963 C.3     1  UNL1        0.0845
      4 C          63.2119   87.8656   12.1472 C.3     1  UNL1        0.0466
      5 C          63.8908   88.9514   12.9283 C.ar    1  UNL1       -0.0200
      6 C          63.9493   90.3460   12.3792 C.ar    1  UNL1        0.0357
      7 C          64.6282   91.4318   13.1604 C.ar    1  UNL1        0.1761
      8 C          65.2487   91.1229   14.4906 C.ar    1  UNL1        0.1761
      9 C          65.1902   89.7283   15.0397 C.ar    1  UNL1        0.0369
     10 C          64.5113   88.6425   14.2586 C.ar    1  UNL1       -0.0081
     11 C          64.4529   87.2478   14.8077 C.3     1  UNL1        0.0845
     12 C          64.3944   85.8532   15.3569 C.3     1  UNL1        0.0466
     13 C          63.7155   84.7674   14.5757 C.ar    1  UNL1       -0.0200
     14 C          63.6570   83.3728   15.1248 C.ar    1  UNL1        0.0357
     15 C          62.9782   82.2870   14.3437 C.ar    1  UNL1        0.1761
     16 C          62.3577   82.5958   13.0134 C.ar    1  UNL1        0.1761
     17 C          62.4161   83.9905   12.4643 C.ar    1  UNL1        0.0369
     18 C          63.0951   85.0762   13.2455 C.ar    1  UNL1       -0.0081
     19 O          61.7611   81.3293   12.4749 O.3     1  UNL1       -0.4346
     20 C          62.0128   80.2377   13.4724 C.3     1  UNL1        0.4294
     21 O          62.7650   80.8296   14.6274 O.3     1  UNL1       -0.4346
     22 O          65.8452   92.3894   15.0291 O.3     1  UNL1       -0.4346
     23 C          65.5935   93.4810   14.0317 C.3     1  UNL1        0.4294
     24 O          64.8414   92.8892   12.8767 O.3     1  UNL1       -0.4346
@<TRIPOS>BOND
     1     1     2    1
     2     2     3    1
     3     3     4    1
     4     4     5    1
     5     5     6   ar
     6     6     7   ar
     7     7     8   ar
     8     8     9   ar
     9     9    10   ar
    10    10    11    1
    11    11    12    1
    12    12    13    1
    13    13    14   ar
    14    14    15   ar
    15    15    16   ar
    16    16    17   ar
    17    17    18   ar
    18    16    19    1
    19    19    20    1
    20    20    21    1
    21     8    22    1
    22    22    23    1
    23    23    24    1
    24    11     2    1
    25    18    13   ar
    26    18     3    1
    27    10     5   ar
    28    21    15    1
    29    24     7    1
@<TRIPOS>MOLECULE
*****
 24 29 0 0 0
SMALL
GASTEIGER

@<TRIPOS>ATOM
      1 C          63.1487   84.5993   12.9857 C.3     1  UNL1        0.0901
      2 N          63.3446   85.3551   13.1460 N.3     1  UNL1       -0.2661
      3 C          63.1838   86.6519   12.4095 C.3     1  UNL1        0.0845
      4 C          62.6858   85.3757   11.7985 C.3     1  UNL1        0.0466
      5 C          62.8467   84.0789   12.5350 C.ar    1  UNL1       -0.0200
      6 C          62.3487   82.8027   11.9242 C.ar    1  UNL1        0.0357
      7 C          62.5096   81.5059   12.6606 C.ar    1  UNL1        0.1761
      8 C          63.1684   81.4853   14.0081 C.ar    1  UNL1        0.1761
      9 C          63.6663   82.7615   14.6189 C.ar    1  UNL1        0.0369
     10 C          63.5055   84.0583   13.8825 C.ar    1  UNL1       -0.0081
     11 C          64.0035   85.3346   14.4934 C.3     1  UNL1        0.0845
     12 C          64.5014   86.6108   15.1044 C.3     1  UNL1        0.0466
     13 C          64.3406   87.9077   14.3678 C.ar    1  UNL1       -0.0200
     14 C          64.8385   89.1839   14.9788 C.ar    1  UNL1        0.0357
     15 C          64.6777   90.4807   14.2423 C.ar    1  UNL1        0.1761
     16 C          64.0189   90.5013   12.8948 C.ar    1  UNL1        0.1761
     17 C          63.5209   89.2251   12.2839 C.ar    1  UNL1        0.0369
     18 C          63.6818   87.9282   13.0205 C.ar    1  UNL1       -0.0081
     19 O          64.0004   91.9205   12.4095 O.3     1  UNL1       -0.4346
     20 C          64.6478   92.7770   13.4570 C.3     1  UNL1        0.4294
     21 O          65.0664   91.8872   14.5897 O.3     1  UNL1       -0.4346
     22 O          63.1868   80.0661   14.4933 O.3     1  UNL1       -0.4346
     23 C          62.5395   79.2096   13.4459 C.3     1  UNL1        0.4294
     24 O          62.1209   80.0994   12.3132 O.3     1  UNL1       -0.4346
@<TRIPOS>BOND
     1     1     2    1
     2     2     3    1
     3     3     4    1
     4     4     5    1
     5     5     6   ar
     6     6     7   ar
     7     7     8   ar
     8     8     9   ar
     9     9    10   ar
    10    10    11    1
    11    11    12    1
    12    12    13    1
    13    13    14   ar
    14    14    15   ar
    15    15    16   ar
    16    16    17   ar
    17    17    18   ar
    18    16    19    1
    19    19    20    1
    20    20    21    1
    21     8    22    1
    22    22    23    1
    23    23    24    1
    24    11     2    1
    25    18    13   ar
    26    18     3    1
    27    10     5   ar
    28    21    15    1
    29    24     7    1
@<TRIPOS>MOLECULE
*****
 24 29 0 0 0
SMALL
GASTEIGER

@<TRIPOS>ATOM
      1 C          64.0621   87.3629   13.9956 C.3     1  UNL1        0.0901
      2 N          63.8641   86.6093   13.8275 N.3     1  UNL1       -0.2661
      3 C          64.0152   85.3054   14.5534 C.3     1  UNL1        0.0845
      4 C          64.5147   86.5741   15.1786 C.3     1  UNL1        0.0466
      5 C          64.3636   87.8780   14.4527 C.ar    1  UNL1       -0.0200
      6 C          64.8631   89.1467   15.0778 C.ar    1  UNL1        0.0357
      7 C          64.7120   90.4506   14.3519 C.ar    1  UNL1        0.1761
      8 C          64.0613   90.4859   13.0008 C.ar    1  UNL1        0.1761
      9 C          63.5618   89.2171   12.3757 C.ar    1  UNL1        0.0369
     10 C          63.7129   87.9132   13.1016 C.ar    1  UNL1       -0.0081
     11 C          63.2134   86.6444   12.4764 C.3     1  UNL1        0.0845
     12 C          62.7138   85.3758   11.8513 C.3     1  UNL1        0.0466
     13 C          62.8650   84.0718   12.5772 C.ar    1  UNL1       -0.0200
     14 C          62.3655   82.8031   11.9521 C.ar    1  UNL1        0.0357
     15 C          62.5166   81.4992   12.6780 C.ar    1  UNL1        0.1761
     16 C          63.1673   81.4640   14.0291 C.ar    1  UNL1        0.1761
     17 C          63.6668   82.7327   14.6542 C.ar    1  UNL1        0.0369
     18 C          63.5156   84.0366   13.9282 C.ar    1  UNL1       -0.0081
     19 O          63.1771   80.0405   14.5019 O.3     1  UNL1       -0.4346
     20 C          62.5324   79.1960   13.4431 C.3     1  UNL1        0.4294
     21 O          62.1242   80.0975   12.3158 O.3     1  UNL1       -0.4346
     22 O          64.0516   91.9093   12.5280 O.3     1  UNL1       -0.4346
     23 C          64.6961   92.7539   13.5868 C.3     1  UNL1        0.4294
     24 O          65.1043   91.8524   14.7141 O.3     1  UNL1       -0.4346
@<TRIPOS>BOND
     1     1     2    1
     2     2     3    1
     3     3     4    1
     4     4     5    1
     5     5     6   ar
     6     6     7   ar
     7     7     8   ar
     8     8     9   ar
     9     9    10   ar
    10    10    11    1
    11    11    12    1
    12    12    13    1
    13    13    14   ar
    14    14    15   ar
    15    15    16   ar
    16    16    17   ar
    17    17    18   ar
    18    16    19    1
    19    19    20    1
    20    20    21    1
    21     8    22    1
    22    22    23    1
    23    23    24    1
    24    11     2    1
    25    18    13   ar
    26    18     3    1
    27    10     5   ar
    28    21    15    1
    29    24     7    1
