@<TRIPOS>MOLECULE
*****
 33 36 0 0 0
SMALL
GASTEIGER

@<TRIPOS>ATOM
      1 C          62.1596   89.2788   10.8056 C.ar    1  UNL1        0.1392
      2 C          62.4027   90.3336    9.7672 C.ar    1  UNL1        0.0384
      3 C          63.3409   91.4678   10.0557 C.ar    1  UNL1        0.0203
      4 C          64.0360   91.5472   11.3826 C.ar    1  UNL1        0.0607
      5 C          63.7929   90.4924   12.4210 C.ar    1  UNL1        0.0305
      6 C          62.8547   89.3582   12.1325 C.ar    1  UNL1        0.0392
      7 C          64.6145   90.8329   13.6288 C.ar    1  UNL1        0.0707
      8 CL         64.6747   90.0463   14.9045 Cl      1  UNL1       -0.0810
      9 C          65.3655   92.0982   13.3369 C.ar    1  UNL1        0.0476
     10 N          65.0080   92.5397   11.9487 N.ar    1  UNL1       -0.3298
     11 C          65.7589   93.8048   11.6568 C.3     1  UNL1        0.1061
     12 C          66.5806   94.1453   12.8646 C.3     1  UNL1        0.0307
     13 C          66.3375   93.0906   13.9030 C.3     1  UNL1        0.0466
     14 O          61.2213   88.1445   10.5171 O.3     1  UNL1       -0.4706
     15 C          61.6816   86.9832    9.6868 C.3     1  UNL1        0.2320
     16 C          63.7383   83.4923   11.6448 C.ar    1  UNL1        0.1422
     17 C          63.6803   83.5859   10.1489 C.ar    1  UNL1        0.0366
     18 C          62.9948   84.7495    9.4962 C.ar    1  UNL1        0.0024
     19 C          62.3672   85.8195   10.3395 C.ar    1  UNL1        0.0213
     20 C          62.4251   85.7259   11.8354 C.ar    1  UNL1        0.0062
     21 C          63.1106   84.5623   12.4881 C.ar    1  UNL1        0.1051
     22 C          63.1686   84.4687   13.9841 C.3     1  UNL1        0.4214
     23 F          63.2265   84.3751   15.4800 F       1  UNL1       -0.1657
     24 F          64.3713   85.3650   13.9936 F       1  UNL1       -0.1657
     25 F          61.9659   83.5724   13.9746 F       1  UNL1       -0.1657
     26 O          64.4239   82.3286   12.2975 O.3     1  UNL1       -0.4792
     27 C          62.8727   80.3333   11.6956 C.3     1  UNL1        0.0472
     28 C          63.6279   81.1290   12.7186 C.3     1  UNL1        0.1661
     29 C          63.5870   80.7252   14.1626 C.3     1  UNL1        0.0472
     30 C          66.9575   93.0374   15.2679 C.3     1  UNL1        0.0476
     31 C          68.3974   93.4148   15.4528 C.2     1  UNL1        0.0507
     32 O          68.7680   94.5175   16.3998 O.co2   1  UNL1       -0.5492
     33 O          69.4666   92.6896   14.6908 O.co2   1  UNL1       -0.5492
@<TRIPOS>UNITY_ATOM_ATTR
32 1
charge -1
@<TRIPOS>BOND
     1    27    28    1
     2    28    29    1
     3    28    26    1
     4    26    16    1
     5    16    17   ar
     6    17    18   ar
     7    18    19   ar
     8    19    15    1
     9    15    14    1
    10    14     1    1
    11     1     2   ar
    12     2     3   ar
    13     3     4   ar
    14     4     5   ar
    15     5     6   ar
    16     5     7   ar
    17     7     8    1
    18     7     9   ar
    19     9    10   ar
    20    10    11    1
    21    11    12    1
    22    12    13    1
    23    13    30    1
    24    30    31    1
    25    31    32   ar
    26    31    33   ar
    27    19    20   ar
    28    20    21   ar
    29    21    22    1
    30    22    23    1
    31    22    24    1
    32    22    25    1
    33    21    16   ar
    34     6     1   ar
    35    13     9    1
    36    10     4   ar
@<TRIPOS>MOLECULE
*****
 33 36 0 0 0
SMALL
GASTEIGER

@<TRIPOS>ATOM
      1 C          61.1987   89.8901   11.2591 C.ar    1  UNL1        0.1392
      2 C          61.7203   90.6245   10.0598 C.ar    1  UNL1        0.0384
      3 C          63.0518   91.3122   10.1221 C.ar    1  UNL1        0.0203
      4 C          63.8618   91.2655   11.3838 C.ar    1  UNL1        0.0607
      5 C          63.3402   90.5310   12.5831 C.ar    1  UNL1        0.0305
      6 C          62.0086   89.8433   12.5208 C.ar    1  UNL1        0.0392
      7 C          64.3549   90.6560   13.6807 C.ar    1  UNL1        0.0707
      8 CL         64.2409   90.0719   15.0575 Cl      1  UNL1       -0.0810
      9 C          65.5037   91.4678   13.1597 C.ar    1  UNL1        0.0476
     10 N          65.1990   91.8444   11.7401 N.ar    1  UNL1       -0.3298
     11 C          66.3477   92.6561   11.2191 C.3     1  UNL1        0.1061
     12 C          67.3624   92.7811   12.3167 C.3     1  UNL1        0.0307
     13 C          66.8408   92.0467   13.5160 C.3     1  UNL1        0.0466
     14 O          59.8670   89.2023   11.1968 O.3     1  UNL1       -0.4706
     15 C          59.6403   88.0947   10.2110 C.3     1  UNL1        0.2320
     16 C          62.7050   84.8324    9.7479 C.ar    1  UNL1        0.1422
     17 C          62.3030   85.2949   11.1170 C.ar    1  UNL1        0.0366
     18 C          61.2814   86.3823   11.2714 C.ar    1  UNL1        0.0024
     19 C          60.6619   87.0073   10.0567 C.ar    1  UNL1        0.0213
     20 C          61.0640   86.5448    8.6876 C.ar    1  UNL1        0.0062
     21 C          62.0855   85.4574    8.5331 C.ar    1  UNL1        0.1051
     22 C          62.4876   84.9950    7.1640 C.3     1  UNL1        0.4214
     23 F          62.8897   84.5325    5.7949 F       1  UNL1       -0.1657
     24 F          61.0637   84.6257    6.8706 F       1  UNL1       -0.1657
     25 F          63.9115   85.3642    7.4575 F       1  UNL1       -0.1657
     26 O          63.7267   83.7449    9.5935 O.3     1  UNL1       -0.4792
     27 C          64.6804   83.0015   11.8929 C.3     1  UNL1        0.0472
     28 C          63.8791   82.7021   10.6608 C.3     1  UNL1        0.1661
     29 C          63.2301   81.3598   10.4960 C.3     1  UNL1        0.0472
     30 C          67.5345   91.9144   14.8394 C.3     1  UNL1        0.0476
     31 C          67.2778   92.9178   15.9244 C.2     1  UNL1        0.0507
     32 O          68.2149   94.0735   16.1141 O.co2   1  UNL1       -0.5492
     33 O          66.0840   92.7654   16.8198 O.co2   1  UNL1       -0.5492
@<TRIPOS>UNITY_ATOM_ATTR
32 1
charge -1
@<TRIPOS>BOND
     1    27    28    1
     2    28    29    1
     3    28    26    1
     4    26    16    1
     5    16    17   ar
     6    17    18   ar
     7    18    19   ar
     8    19    15    1
     9    15    14    1
    10    14     1    1
    11     1     2   ar
    12     2     3   ar
    13     3     4   ar
    14     4     5   ar
    15     5     6   ar
    16     5     7   ar
    17     7     8    1
    18     7     9   ar
    19     9    10   ar
    20    10    11    1
    21    11    12    1
    22    12    13    1
    23    13    30    1
    24    30    31    1
    25    31    32   ar
    26    31    33   ar
    27    19    20   ar
    28    20    21   ar
    29    21    22    1
    30    22    23    1
    31    22    24    1
    32    22    25    1
    33    21    16   ar
    34     6     1   ar
    35    13     9    1
    36    10     4   ar
@<TRIPOS>MOLECULE
*****
 33 36 0 0 0
SMALL
GASTEIGER

@<TRIPOS>ATOM
      1 C          64.6074   90.5099   13.9449 C.ar    1  UNL1        0.1392
      2 C          64.6831   89.2207   14.7080 C.ar    1  UNL1        0.0384
      3 C          64.0829   87.9723   14.1327 C.ar    1  UNL1        0.0203
      4 C          63.4069   88.0130   12.7942 C.ar    1  UNL1        0.0607
      5 C          63.3312   89.3021   12.0311 C.ar    1  UNL1        0.0305
      6 C          63.9314   90.5506   12.6065 C.ar    1  UNL1        0.0392
      7 C          62.6071   89.0373   10.7445 C.ar    1  UNL1        0.0707
      8 CL         62.3074   90.0479    9.6773 Cl      1  UNL1       -0.0810
      9 C          62.2353   87.5844   10.7124 C.ar    1  UNL1        0.0476
     10 N          62.7296   86.9514   11.9792 N.ar    1  UNL1       -0.3298
     11 C          62.3577   85.4986   11.9471 C.3     1  UNL1        0.1061
     12 C          61.6336   85.2338   10.6604 C.3     1  UNL1        0.0307
     13 C          61.5579   86.5229    9.8973 C.3     1  UNL1        0.0466
     14 O          65.2076   91.7584   14.5203 O.3     1  UNL1       -0.4706
     15 C          66.5105   92.2780   13.9888 C.3     1  UNL1        0.2320
     16 C          66.7360   93.9345    9.8109 C.ar    1  UNL1        0.1422
     17 C          65.7491   94.4991   10.7893 C.ar    1  UNL1        0.0366
     18 C          65.6739   93.9469   12.1819 C.ar    1  UNL1        0.0024
     19 C          66.5856   92.8302   12.5961 C.ar    1  UNL1        0.0213
     20 C          67.5726   92.2657   11.6177 C.ar    1  UNL1        0.0062
     21 C          67.6478   92.8178   10.2251 C.ar    1  UNL1        0.1051
     22 C          68.6347   92.2532    9.2467 C.3     1  UNL1        0.4214
     23 F          69.6216   91.6887    8.2684 F       1  UNL1       -0.1657
     24 F          67.7439   91.0653    9.0336 F       1  UNL1       -0.1657
     25 F          69.5255   93.4412    9.4598 F       1  UNL1       -0.1657
     26 O          66.8112   94.4867    8.4182 O.3     1  UNL1       -0.4792
     27 C          65.9821   96.5709    7.1073 C.3     1  UNL1        0.0472
     28 C          66.8173   95.9706    8.1991 C.3     1  UNL1        0.1661
     29 C          67.6586   96.8541    9.0717 C.3     1  UNL1        0.0472
     30 C          60.9173   86.7165    8.5548 C.3     1  UNL1        0.0476
     31 C          59.6304   87.4786    8.4408 C.2     1  UNL1        0.0507
     32 O          59.5931   88.9412    8.7716 O.co2   1  UNL1       -0.5492
     33 O          58.3808   86.7781    7.9959 O.co2   1  UNL1       -0.5492
@<TRIPOS>UNITY_ATOM_ATTR
32 1
charge -1
@<TRIPOS>BOND
     1    27    28    1
     2    28    29    1
     3    28    26    1
     4    26    16    1
     5    16    17   ar
     6    17    18   ar
     7    18    19   ar
     8    19    15    1
     9    15    14    1
    10    14     1    1
    11     1     2   ar
    12     2     3   ar
    13     3     4   ar
    14     4     5   ar
    15     5     6   ar
    16     5     7   ar
    17     7     8    1
    18     7     9   ar
    19     9    10   ar
    20    10    11    1
    21    11    12    1
    22    12    13    1
    23    13    30    1
    24    30    31    1
    25    31    32   ar
    26    31    33   ar
    27    19    20   ar
    28    20    21   ar
    29    21    22    1
    30    22    23    1
    31    22    24    1
    32    22    25    1
    33    21    16   ar
    34     6     1   ar
    35    13     9    1
    36    10     4   ar
@<TRIPOS>MOLECULE
*****
 33 36 0 0 0
SMALL
GASTEIGER

@<TRIPOS>ATOM
      1 C          62.0930   88.4949   11.1942 C.ar    1  UNL1        0.1392
      2 C          62.1426   88.0805    9.7535 C.ar    1  UNL1        0.0384
      3 C          62.4884   86.6666    9.3912 C.ar    1  UNL1        0.0203
      4 C          62.7847   85.6671   10.4698 C.ar    1  UNL1        0.0607
      5 C          62.7351   86.0815   11.9105 C.ar    1  UNL1        0.0305
      6 C          62.3893   87.4954   12.2727 C.ar    1  UNL1        0.0392
      7 C          63.0724   84.8844   12.7490 C.ar    1  UNL1        0.0707
      8 CL         63.1398   84.8479   14.2470 Cl      1  UNL1       -0.0810
      9 C          63.3304   83.7301   11.8265 C.ar    1  UNL1        0.0476
     10 N          63.1526   84.2138   10.4178 N.ar    1  UNL1       -0.3298
     11 C          63.4106   83.0596    9.4953 C.3     1  UNL1        0.1061
     12 C          63.7479   81.8624   10.3338 C.3     1  UNL1        0.0307
     13 C          63.6983   82.2768   11.7745 C.3     1  UNL1        0.0466
     14 O          61.7471   89.9089   11.5565 O.3     1  UNL1       -0.4706
     15 C          62.5652   90.6431   12.5770 C.3     1  UNL1        0.2320
     16 C          66.2882   92.8369   11.3213 C.ar    1  UNL1        0.1422
     17 C          65.2374   92.5002   10.3052 C.ar    1  UNL1        0.0366
     18 C          63.9964   91.7690   10.7238 C.ar    1  UNL1        0.0024
     19 C          63.8063   91.3744   12.1584 C.ar    1  UNL1        0.0213
     20 C          64.8571   91.7111   13.1744 C.ar    1  UNL1        0.0062
     21 C          66.0981   92.4423   12.7559 C.ar    1  UNL1        0.1051
     22 C          67.1490   92.7790   13.7719 C.3     1  UNL1        0.4214
     23 F          68.1998   93.1156   14.7880 F       1  UNL1       -0.1657
     24 F          67.9759   91.6196   13.3008 F       1  UNL1       -0.1657
     25 F          66.3220   93.9384   14.2431 F       1  UNL1       -0.1657
     26 O          67.5292   93.5681   10.9027 O.3     1  UNL1       -0.4792
     27 C          67.6341   94.7154    8.5741 C.3     1  UNL1        0.0472
     28 C          67.9594   93.5540    9.4658 C.3     1  UNL1        0.1661
     29 C          68.7149   92.3784    8.9206 C.3     1  UNL1        0.0472
     30 C          63.9691   81.3931   12.9560 C.3     1  UNL1        0.0476
     31 C          62.8272   80.8373   13.7542 C.2     1  UNL1        0.0507
     32 O          62.2290   81.6432   14.8689 O.co2   1  UNL1       -0.5492
     33 O          62.2836   79.4755   13.4378 O.co2   1  UNL1       -0.5492
@<TRIPOS>UNITY_ATOM_ATTR
32 1
charge -1
@<TRIPOS>BOND
     1    27    28    1
     2    28    29    1
     3    28    26    1
     4    26    16    1
     5    16    17   ar
     6    17    18   ar
     7    18    19   ar
     8    19    15    1
     9    15    14    1
    10    14     1    1
    11     1     2   ar
    12     2     3   ar
    13     3     4   ar
    14     4     5   ar
    15     5     6   ar
    16     5     7   ar
    17     7     8    1
    18     7     9   ar
    19     9    10   ar
    20    10    11    1
    21    11    12    1
    22    12    13    1
    23    13    30    1
    24    30    31    1
    25    31    32   ar
    26    31    33   ar
    27    19    20   ar
    28    20    21   ar
    29    21    22    1
    30    22    23    1
    31    22    24    1
    32    22    25    1
    33    21    16   ar
    34     6     1   ar
    35    13     9    1
    36    10     4   ar
@<TRIPOS>MOLECULE
*****
 33 36 0 0 0
SMALL
GASTEIGER

@<TRIPOS>ATOM
      1 C          61.3084   88.0512   10.4150 C.ar    1  UNL1        0.1392
      2 C          61.8262   87.5970    9.0826 C.ar    1  UNL1        0.0384
      3 C          62.4943   86.2603    8.9536 C.ar    1  UNL1        0.0203
      4 C          62.6446   85.3777   10.1571 C.ar    1  UNL1        0.0607
      5 C          62.1268   85.8319   11.4896 C.ar    1  UNL1        0.0305
      6 C          61.4587   87.1686   11.6186 C.ar    1  UNL1        0.0392
      7 C          62.4161   84.7536   12.4914 C.ar    1  UNL1        0.0707
      8 CL         62.0696   84.7896   13.9503 Cl      1  UNL1       -0.0810
      9 C          63.1128   83.6329   11.7780 C.ar    1  UNL1        0.0476
     10 N          63.2540   84.0186   10.3353 N.ar    1  UNL1       -0.3298
     11 C          63.9506   82.8980    9.6220 C.3     1  UNL1        0.1061
     12 C          64.2400   81.8197   10.6238 C.3     1  UNL1        0.0307
     13 C          63.7221   82.2739   11.9563 C.3     1  UNL1        0.0466
     14 O          60.6403   89.3880   10.5440 O.3     1  UNL1       -0.4706
     15 C          61.4570   90.6443   10.4760 C.3     1  UNL1        0.2320
     16 C          65.0315   91.1523   13.1620 C.ar    1  UNL1        0.1422
     17 C          65.0061   91.8113   11.8148 C.ar    1  UNL1        0.0366
     18 C          63.8146   91.6419   10.9194 C.ar    1  UNL1        0.0024
     19 C          62.6486   90.8137   11.3714 C.ar    1  UNL1        0.0213
     20 C          62.6740   90.1548   12.7187 C.ar    1  UNL1        0.0062
     21 C          63.8655   90.3241   13.6140 C.ar    1  UNL1        0.1051
     22 C          63.8910   89.6651   14.9613 C.3     1  UNL1        0.4214
     23 F          63.9164   89.0062   16.3085 F       1  UNL1       -0.1657
     24 F          63.5488   90.9745   15.6081 F       1  UNL1       -0.1657
     25 F          64.2332   88.3557   14.3144 F       1  UNL1       -0.1657
     26 O          66.2231   91.3217   14.0574 O.3     1  UNL1       -0.4792
     27 C          66.6765   92.7217   16.1984 C.3     1  UNL1        0.0472
     28 C          66.4870   92.6450   14.7124 C.3     1  UNL1        0.1661
     29 C          66.5614   93.8916   13.8815 C.3     1  UNL1        0.0472
     30 C          63.8000   81.5043   13.2414 C.3     1  UNL1        0.0476
     31 C          62.5951   80.7697   13.7499 C.2     1  UNL1        0.0507
     32 O          62.4213   79.3116   13.4439 O.co2   1  UNL1       -0.5492
     33 O          61.5640   81.4932   14.5644 O.co2   1  UNL1       -0.5492
@<TRIPOS>UNITY_ATOM_ATTR
32 1
charge -1
@<TRIPOS>BOND
     1    27    28    1
     2    28    29    1
     3    28    26    1
     4    26    16    1
     5    16    17   ar
     6    17    18   ar
     7    18    19   ar
     8    19    15    1
     9    15    14    1
    10    14     1    1
    11     1     2   ar
    12     2     3   ar
    13     3     4   ar
    14     4     5   ar
    15     5     6   ar
    16     5     7   ar
    17     7     8    1
    18     7     9   ar
    19     9    10   ar
    20    10    11    1
    21    11    12    1
    22    12    13    1
    23    13    30    1
    24    30    31    1
    25    31    32   ar
    26    31    33   ar
    27    19    20   ar
    28    20    21   ar
    29    21    22    1
    30    22    23    1
    31    22    24    1
    32    22    25    1
    33    21    16   ar
    34     6     1   ar
    35    13     9    1
    36    10     4   ar
@<TRIPOS>MOLECULE
*****
 33 36 0 0 0
SMALL
GASTEIGER

@<TRIPOS>ATOM
      1 C          62.0027   88.4758   10.8651 C.ar    1  UNL1        0.1392
      2 C          61.9150   87.8993    9.4831 C.ar    1  UNL1        0.0384
      3 C          62.2650   86.4599    9.2474 C.ar    1  UNL1        0.0203
      4 C          62.7027   85.5970   10.3936 C.ar    1  UNL1        0.0607
      5 C          62.7904   86.1735   11.7756 C.ar    1  UNL1        0.0305
      6 C          62.4404   87.6129   12.0113 C.ar    1  UNL1        0.0392
      7 C          63.2500   85.0875   12.7026 C.ar    1  UNL1        0.0707
      8 CL         63.4739   85.2251   14.1794 Cl      1  UNL1       -0.0810
      9 C          63.4463   83.8397   11.8935 C.ar    1  UNL1        0.0476
     10 N          63.1081   84.1546   10.4665 N.ar    1  UNL1       -0.3298
     11 C          63.3044   82.9069    9.6574 C.3     1  UNL1        0.1061
     12 C          63.7640   81.8209   10.5844 C.3     1  UNL1        0.0307
     13 C          63.8517   82.3974   11.9664 C.3     1  UNL1        0.0466
     14 O          61.6527   89.9152   11.1009 O.3     1  UNL1       -0.4706
     15 C          62.5058   91.0004   10.5138 C.3     1  UNL1        0.2320
     16 C          66.1955   92.3853   12.6859 C.ar    1  UNL1        0.1422
     17 C          65.1809   91.5384   13.3955 C.ar    1  UNL1        0.0366
     18 C          63.9510   91.0768   12.6715 C.ar    1  UNL1        0.0024
     19 C          63.7357   91.4620   11.2379 C.ar    1  UNL1        0.0213
     20 C          64.7503   92.3089   10.5283 C.ar    1  UNL1        0.0062
     21 C          65.9802   92.7705   11.2524 C.ar    1  UNL1        0.1051
     22 C          66.9947   93.6174   10.5428 C.3     1  UNL1        0.4214
     23 F          68.0093   94.4642    9.8332 F       1  UNL1       -0.1657
     24 F          67.6968   92.3794   10.0691 F       1  UNL1       -0.1657
     25 F          66.2926   94.8554   11.0165 F       1  UNL1       -0.1657
     26 O          67.4254   92.8469   13.4100 O.3     1  UNL1       -0.4792
     27 C          68.8467   92.3691   15.5316 C.3     1  UNL1        0.0472
     28 C          67.5246   92.6858   14.8980 C.3     1  UNL1        0.1661
     29 C          66.3015   92.8414   15.7524 C.3     1  UNL1        0.0472
     30 C          64.2712   81.6609   13.2040 C.3     1  UNL1        0.0476
     31 C          63.2346   81.1491   14.1598 C.2     1  UNL1        0.0507
     32 O          63.1380   79.6797   14.4451 O.co2   1  UNL1       -0.5492
     33 O          62.2947   82.1067   14.8303 O.co2   1  UNL1       -0.5492
@<TRIPOS>UNITY_ATOM_ATTR
32 1
charge -1
@<TRIPOS>BOND
     1    27    28    1
     2    28    29    1
     3    28    26    1
     4    26    16    1
     5    16    17   ar
     6    17    18   ar
     7    18    19   ar
     8    19    15    1
     9    15    14    1
    10    14     1    1
    11     1     2   ar
    12     2     3   ar
    13     3     4   ar
    14     4     5   ar
    15     5     6   ar
    16     5     7   ar
    17     7     8    1
    18     7     9   ar
    19     9    10   ar
    20    10    11    1
    21    11    12    1
    22    12    13    1
    23    13    30    1
    24    30    31    1
    25    31    32   ar
    26    31    33   ar
    27    19    20   ar
    28    20    21   ar
    29    21    22    1
    30    22    23    1
    31    22    24    1
    32    22    25    1
    33    21    16   ar
    34     6     1   ar
    35    13     9    1
    36    10     4   ar
@<TRIPOS>MOLECULE
*****
 33 36 0 0 0
SMALL
GASTEIGER

@<TRIPOS>ATOM
      1 C          61.3383   89.4046   10.2235 C.ar    1  UNL1        0.1392
      2 C          60.8613   88.9549   11.5726 C.ar    1  UNL1        0.0384
      3 C          61.5889   89.3920   12.8093 C.ar    1  UNL1        0.0203
      4 C          62.7935   90.2789   12.6969 C.ar    1  UNL1        0.0607
      5 C          63.2704   90.7286   11.3477 C.ar    1  UNL1        0.0305
      6 C          62.5428   90.2915   10.1110 C.ar    1  UNL1        0.0392
      7 C          64.4787   91.5945   11.5482 C.ar    1  UNL1        0.0707
      8 CL         65.2770   92.2584   10.4657 Cl      1  UNL1       -0.0810
      9 C          64.7485   91.6800   13.0213 C.ar    1  UNL1        0.0476
     10 N          63.7070   90.8668   13.7312 N.ar    1  UNL1       -0.3298
     11 C          63.9768   90.9523   15.2042 C.3     1  UNL1        0.1061
     12 C          65.1851   91.8182   15.4047 C.3     1  UNL1        0.0307
     13 C          65.6621   92.2679   14.0555 C.3     1  UNL1        0.0466
     14 O          60.6107   88.9675    8.9867 O.3     1  UNL1       -0.4706
     15 C          60.4148   87.5067    8.7086 C.3     1  UNL1        0.2320
     16 C          63.4261   84.5102   10.1928 C.ar    1  UNL1        0.1422
     17 C          63.2787   84.7594    8.7210 C.ar    1  UNL1        0.0366
     18 C          62.2750   85.7582    8.2263 C.ar    1  UNL1        0.0024
     19 C          61.4186   86.5078    9.2033 C.ar    1  UNL1        0.0213
     20 C          61.5660   86.2586   10.6751 C.ar    1  UNL1        0.0062
     21 C          62.5697   85.2598   11.1698 C.ar    1  UNL1        0.1051
     22 C          62.7171   85.0106   12.6416 C.3     1  UNL1        0.4214
     23 F          62.8645   84.7614   14.1134 F       1  UNL1       -0.1657
     24 F          63.5452   86.2547   12.7694 F       1  UNL1       -0.1657
     25 F          61.8890   83.7664   12.5139 F       1  UNL1       -0.1657
     26 O          64.4299   83.5113   10.6875 O.3     1  UNL1       -0.4792
     27 C          63.1548   81.2749   10.3379 C.3     1  UNL1        0.0472
     28 C          63.9708   82.1824   11.2101 C.3     1  UNL1        0.1661
     29 C          64.3276   81.7609   12.6047 C.3     1  UNL1        0.0472
     30 C          66.8449   93.1507   13.7877 C.3     1  UNL1        0.0476
     31 C          67.9960   93.1745   14.7491 C.2     1  UNL1        0.0507
     32 O          67.8619   93.8873   16.0620 O.co2   1  UNL1       -0.5492
     33 O          69.2812   92.4855   14.3976 O.co2   1  UNL1       -0.5492
@<TRIPOS>UNITY_ATOM_ATTR
32 1
charge -1
@<TRIPOS>BOND
     1    27    28    1
     2    28    29    1
     3    28    26    1
     4    26    16    1
     5    16    17   ar
     6    17    18   ar
     7    18    19   ar
     8    19    15    1
     9    15    14    1
    10    14     1    1
    11     1     2   ar
    12     2     3   ar
    13     3     4   ar
    14     4     5   ar
    15     5     6   ar
    16     5     7   ar
    17     7     8    1
    18     7     9   ar
    19     9    10   ar
    20    10    11    1
    21    11    12    1
    22    12    13    1
    23    13    30    1
    24    30    31    1
    25    31    32   ar
    26    31    33   ar
    27    19    20   ar
    28    20    21   ar
    29    21    22    1
    30    22    23    1
    31    22    24    1
    32    22    25    1
    33    21    16   ar
    34     6     1   ar
    35    13     9    1
    36    10     4   ar
@<TRIPOS>MOLECULE
*****
 33 36 0 0 0
SMALL
GASTEIGER

@<TRIPOS>ATOM
      1 C          63.1510   87.6122   12.6968 C.ar    1  UNL1        0.1392
      2 C          63.1659   86.2156   12.1499 C.ar    1  UNL1        0.0384
      3 C          62.3754   85.8837   10.9191 C.ar    1  UNL1        0.0203
      4 C          61.5699   86.9484   10.2353 C.ar    1  UNL1        0.0607
      5 C          61.5550   88.3450   10.7822 C.ar    1  UNL1        0.0305
      6 C          62.3455   88.6769   12.0130 C.ar    1  UNL1        0.0392
      7 C          60.6740   89.1789    9.8999 C.ar    1  UNL1        0.0707
      8 CL         60.3750   90.6379   10.0786 Cl      1  UNL1       -0.0810
      9 C          60.1444   88.2977    8.8076 C.ar    1  UNL1        0.0476
     10 N          60.6981   86.9191    9.0149 N.ar    1  UNL1       -0.3298
     11 C          60.1686   86.0379    7.9227 C.3     1  UNL1        0.1061
     12 C          59.2876   86.8719    7.0404 C.3     1  UNL1        0.0307
     13 C          59.2727   88.2685    7.5873 C.3     1  UNL1        0.0466
     14 O          63.9415   87.9441   13.9277 O.3     1  UNL1       -0.4706
     15 C          63.9038   89.3337   14.4911 C.3     1  UNL1        0.2320
     16 C          66.1941   92.6418   12.4761 C.ar    1  UNL1        0.1422
     17 C          64.8960   92.1660   11.8943 C.ar    1  UNL1        0.0366
     18 C          64.1325   91.0633   12.5660 C.ar    1  UNL1        0.0024
     19 C          64.6672   90.4365   13.8194 C.ar    1  UNL1        0.0213
     20 C          65.9653   90.9123   14.4012 C.ar    1  UNL1        0.0062
     21 C          66.7288   92.0150   13.7295 C.ar    1  UNL1        0.1051
     22 C          68.0269   92.4909   14.3113 C.3     1  UNL1        0.4214
     23 F          69.3250   92.9667   14.8930 F       1  UNL1       -0.1657
     24 F          68.7785   91.6752   13.3014 F       1  UNL1       -0.1657
     25 F          67.2753   93.3066   15.3211 F       1  UNL1       -0.1657
     26 O          66.9576   93.7446   11.8043 O.3     1  UNL1       -0.4792
     27 C          67.1335   94.7405    9.4112 C.3     1  UNL1        0.0472
     28 C          67.3642   93.6077   10.3670 C.3     1  UNL1        0.1661
     29 C          68.0016   92.3381    9.8855 C.3     1  UNL1        0.0472
     30 C          58.5184   89.4317    7.0145 C.3     1  UNL1        0.0476
     31 C          59.0924   90.2046    5.8642 C.2     1  UNL1        0.0507
     32 O          60.5587   90.1186    5.5602 O.co2   1  UNL1       -0.5492
     33 O          58.2000   91.0634    5.0180 O.co2   1  UNL1       -0.5492
@<TRIPOS>UNITY_ATOM_ATTR
32 1
charge -1
@<TRIPOS>BOND
     1    27    28    1
     2    28    29    1
     3    28    26    1
     4    26    16    1
     5    16    17   ar
     6    17    18   ar
     7    18    19   ar
     8    19    15    1
     9    15    14    1
    10    14     1    1
    11     1     2   ar
    12     2     3   ar
    13     3     4   ar
    14     4     5   ar
    15     5     6   ar
    16     5     7   ar
    17     7     8    1
    18     7     9   ar
    19     9    10   ar
    20    10    11    1
    21    11    12    1
    22    12    13    1
    23    13    30    1
    24    30    31    1
    25    31    32   ar
    26    31    33   ar
    27    19    20   ar
    28    20    21   ar
    29    21    22    1
    30    22    23    1
    31    22    24    1
    32    22    25    1
    33    21    16   ar
    34     6     1   ar
    35    13     9    1
    36    10     4   ar
@<TRIPOS>MOLECULE
*****
 33 36 0 0 0
SMALL
GASTEIGER

@<TRIPOS>ATOM
      1 C          61.6297   89.5592   12.7787 C.ar    1  UNL1        0.1392
      2 C          60.7194   90.5220   12.0757 C.ar    1  UNL1        0.0384
      3 C          60.1174   90.1546   10.7519 C.ar    1  UNL1        0.0203
      4 C          60.4257   88.8244   10.1311 C.ar    1  UNL1        0.0607
      5 C          61.3361   87.8616   10.8340 C.ar    1  UNL1        0.0305
      6 C          61.9381   88.2290   12.1579 C.ar    1  UNL1        0.0392
      7 C          61.4561   86.6319    9.9834 C.ar    1  UNL1        0.0707
      8 CL         62.2696   85.4134   10.3051 Cl      1  UNL1       -0.0810
      9 C          60.6200   86.8348    8.7547 C.ar    1  UNL1        0.0476
     10 N          59.9831   88.1898    8.8459 N.ar    1  UNL1       -0.3298
     11 C          59.1470   88.3926    7.6173 C.3     1  UNL1        0.1061
     12 C          59.2671   87.1630    6.7667 C.3     1  UNL1        0.0307
     13 C          60.1774   86.2002    7.4696 C.3     1  UNL1        0.0466
     14 O          62.2317   89.9265   14.1026 O.3     1  UNL1       -0.4706
     15 C          63.7176   89.8579   14.2958 C.3     1  UNL1        0.2320
     16 C          66.4048   92.7390   12.1214 C.ar    1  UNL1        0.1422
     17 C          65.1074   92.3106   11.5025 C.ar    1  UNL1        0.0366
     18 C          64.2117   91.3502   12.2272 C.ar    1  UNL1        0.0024
     19 C          64.6134   90.8183   13.5709 C.ar    1  UNL1        0.0213
     20 C          65.9108   91.2468   14.1899 C.ar    1  UNL1        0.0062
     21 C          66.8065   92.2071   13.4652 C.ar    1  UNL1        0.1051
     22 C          68.1039   92.6356   14.0842 C.3     1  UNL1        0.4214
     23 F          69.4013   93.0640   14.7032 F       1  UNL1       -0.1657
     24 F          67.3718   93.6407   14.9231 F       1  UNL1       -0.1657
     25 F          68.8361   91.6305   13.2453 F       1  UNL1       -0.1657
     26 O          67.3006   93.6994   11.3966 O.3     1  UNL1       -0.4792
     27 C          67.3325   94.5055    8.9270 C.3     1  UNL1        0.0472
     28 C          67.6469   93.4611    9.9568 C.3     1  UNL1        0.1661
     29 C          68.3077   92.1785    9.5467 C.3     1  UNL1        0.0472
     30 C          60.5754   84.8413    6.9745 C.3     1  UNL1        0.0476
     31 C          61.9557   84.6150    6.4328 C.2     1  UNL1        0.0507
     32 O          62.1416   84.1969    5.0043 O.co2   1  UNL1       -0.5492
     33 O          63.1502   84.8067    7.3197 O.co2   1  UNL1       -0.5492
@<TRIPOS>UNITY_ATOM_ATTR
32 1
charge -1
@<TRIPOS>BOND
     1    27    28    1
     2    28    29    1
     3    28    26    1
     4    26    16    1
     5    16    17   ar
     6    17    18   ar
     7    18    19   ar
     8    19    15    1
     9    15    14    1
    10    14     1    1
    11     1     2   ar
    12     2     3   ar
    13     3     4   ar
    14     4     5   ar
    15     5     6   ar
    16     5     7   ar
    17     7     8    1
    18     7     9   ar
    19     9    10   ar
    20    10    11    1
    21    11    12    1
    22    12    13    1
    23    13    30    1
    24    30    31    1
    25    31    32   ar
    26    31    33   ar
    27    19    20   ar
    28    20    21   ar
    29    21    22    1
    30    22    23    1
    31    22    24    1
    32    22    25    1
    33    21    16   ar
    34     6     1   ar
    35    13     9    1
    36    10     4   ar
