@<TRIPOS>MOLECULE
*****
 27 30 0 0 0
SMALL
GASTEIGER

@<TRIPOS>ATOM
      1 C          64.4756   89.1312   13.5101 C.ar    1  UNL1       -0.0225
      2 C          64.8812   88.2228   14.6326 C.ar    1  UNL1       -0.0043
      3 C          64.3653   86.8151   14.6821 C.ar    1  UNL1       -0.0003
      4 C          63.4438   86.3160   13.6090 C.ar    1  UNL1        0.0021
      5 C          63.0381   87.2245   12.4865 C.ar    1  UNL1       -0.0003
      6 C          63.5540   88.6321   12.4371 C.ar    1  UNL1       -0.0043
      7 C          66.7496   94.3427   14.2251 C.3     1  UNL1        0.0000
      8 C          66.0233   93.3541   13.3619 C.3     1  UNL1        0.0000
      9 C          66.0873   94.5222   12.4230 C.3     1  UNL1        0.0000
     10 C          65.3191   92.7712   12.1726 C.3     1  UNL1        0.0003
     11 C          64.8032   91.3636   12.2221 C.3     1  UNL1        0.0044
     12 C          64.9915   90.5389   13.4607 C.3     1  UNL1        0.0223
     13 C          65.6956   91.1218   14.6500 C.3     1  UNL1        0.0044
     14 C          66.2115   92.5294   14.6006 C.3     1  UNL1        0.0003
     15 C          62.9279   84.9084   13.6584 C.ar    1  UNL1        0.0275
     16 C          62.8804   84.0826   12.4071 C.ar    1  UNL1        0.0019
     17 C          62.3645   82.6750   12.4565 C.ar    1  UNL1       -0.0038
     18 C          61.8961   82.0931   13.7572 C.ar    1  UNL1       -0.0157
     19 C          61.9435   82.9189   15.0085 C.ar    1  UNL1        0.0257
     20 C          62.4594   84.3265   14.9591 C.ar    1  UNL1        0.1398
     21 F          62.5069   85.1522   16.2105 F       1  UNL1       -0.2042
     22 C          61.3802   80.6855   13.8066 C.3     1  UNL1        0.0509
     23 C          60.4348   79.5367   13.9971 C.3     1  UNL1        0.0100
     24 C          59.9642   80.9417   14.2300 C.3     1  UNL1        0.0100
     25 C          62.6170   79.9403   13.4004 C.2     1  UNL1        0.0534
     26 O          62.6575   79.2124   12.0895 O.co2   1  UNL1       -0.5489
     27 O          63.8133   79.9231   14.3051 O.co2   1  UNL1       -0.5489
@<TRIPOS>UNITY_ATOM_ATTR
26 1
charge -1
@<TRIPOS>BOND
     1     7     8    1
     2     8     9    1
     3     8    10    1
     4    10    11    1
     5    11    12    1
     6    12     1    1
     7     1     2   ar
     8     2     3   ar
     9     3     4   ar
    10     4    15    1
    11    15    16   ar
    12    16    17   ar
    13    17    18   ar
    14    18    22    1
    15    22    25    1
    16    25    26   ar
    17    25    27   ar
    18    22    23    1
    19    23    24    1
    20    18    19   ar
    21    19    20   ar
    22    20    21    1
    23     4     5   ar
    24     5     6   ar
    25    12    13    1
    26    13    14    1
    27    14     8    1
    28     6     1   ar
    29    20    15   ar
    30    24    22    1
@<TRIPOS>MOLECULE
*****
 27 30 0 0 0
SMALL
GASTEIGER

@<TRIPOS>ATOM
      1 C          64.4759   89.1434   13.5051 C.ar    1  UNL1       -0.0225
      2 C          63.5591   88.6408   12.4297 C.ar    1  UNL1       -0.0043
      3 C          63.0419   87.2337   12.4821 C.ar    1  UNL1       -0.0003
      4 C          63.4416   86.3293   13.6100 C.ar    1  UNL1        0.0021
      5 C          64.3585   86.8320   14.6855 C.ar    1  UNL1       -0.0003
      6 C          64.8756   88.2390   14.6331 C.ar    1  UNL1       -0.0043
      7 C          66.7439   94.3585   14.2131 C.3     1  UNL1        0.0000
      8 C          66.0274   93.3646   13.3478 C.3     1  UNL1        0.0000
      9 C          66.1034   94.5264   12.4020 C.3     1  UNL1        0.0000
     10 C          65.3374   92.7742   12.1540 C.3     1  UNL1        0.0003
     11 C          64.8202   91.3671   12.2064 C.3     1  UNL1        0.0044
     12 C          64.9931   90.5505   13.4527 C.3     1  UNL1        0.0223
     13 C          65.6832   91.1409   14.6465 C.3     1  UNL1        0.0044
     14 C          66.2003   92.5479   14.5940 C.3     1  UNL1        0.0003
     15 C          62.9244   84.9223   13.6625 C.ar    1  UNL1        0.0275
     16 C          62.8676   84.0970   12.4113 C.ar    1  UNL1        0.0019
     17 C          62.3504   82.6900   12.4637 C.ar    1  UNL1       -0.0038
     18 C          61.8901   82.1082   13.7674 C.ar    1  UNL1       -0.0157
     19 C          61.9470   82.9335   15.0186 C.ar    1  UNL1        0.0257
     20 C          62.4642   84.3405   14.9662 C.ar    1  UNL1        0.1398
     21 F          62.5210   85.1658   16.2175 F       1  UNL1       -0.2042
     22 C          61.3729   80.7011   13.8199 C.3     1  UNL1        0.0509
     23 C          60.4256   79.5538   14.0097 C.3     1  UNL1        0.0100
     24 C          59.9546   80.9602   14.2336 C.3     1  UNL1        0.0100
     25 C          62.6116   79.9534   13.4243 C.2     1  UNL1        0.0534
     26 O          63.7990   79.9310   14.3407 O.co2   1  UNL1       -0.5489
     27 O          62.6630   79.2281   12.1123 O.co2   1  UNL1       -0.5489
@<TRIPOS>UNITY_ATOM_ATTR
26 1
charge -1
@<TRIPOS>BOND
     1     7     8    1
     2     8     9    1
     3     8    10    1
     4    10    11    1
     5    11    12    1
     6    12     1    1
     7     1     2   ar
     8     2     3   ar
     9     3     4   ar
    10     4    15    1
    11    15    16   ar
    12    16    17   ar
    13    17    18   ar
    14    18    22    1
    15    22    25    1
    16    25    26   ar
    17    25    27   ar
    18    22    23    1
    19    23    24    1
    20    18    19   ar
    21    19    20   ar
    22    20    21    1
    23     4     5   ar
    24     5     6   ar
    25    12    13    1
    26    13    14    1
    27    14     8    1
    28     6     1   ar
    29    20    15   ar
    30    24    22    1
@<TRIPOS>MOLECULE
*****
 27 30 0 0 0
SMALL
GASTEIGER

@<TRIPOS>ATOM
      1 C          60.1821   88.4743    7.6732 C.ar    1  UNL1       -0.0225
      2 C          61.0028   88.9468    8.8365 C.ar    1  UNL1       -0.0043
      3 C          61.6157   87.9507    9.7757 C.ar    1  UNL1       -0.0003
      4 C          61.4079   86.4822    9.5517 C.ar    1  UNL1        0.0021
      5 C          60.5872   86.0097    8.3885 C.ar    1  UNL1       -0.0003
      6 C          59.9743   87.0058    7.4492 C.ar    1  UNL1       -0.0043
      7 C          56.9939   91.9417    4.4091 C.3     1  UNL1        0.0000
      8 C          58.3434   91.4625    4.8554 C.3     1  UNL1        0.0000
      9 C          58.7539   92.5095    3.8627 C.3     1  UNL1        0.0000
     10 C          59.8355   91.3469    4.9570 C.3     1  UNL1        0.0003
     11 C          60.4483   90.3509    5.8963 C.3     1  UNL1        0.0044
     12 C          59.5692   89.4704    6.7340 C.3     1  UNL1        0.0223
     13 C          58.0771   89.5860    6.6324 C.3     1  UNL1        0.0044
     14 C          57.4642   90.5821    5.6931 C.3     1  UNL1        0.0003
     15 C          62.0207   85.4861   10.4910 C.ar    1  UNL1        0.0275
     16 C          61.6837   85.5269   11.9520 C.ar    1  UNL1        0.0019
     17 C          62.2966   84.5309   12.8913 C.ar    1  UNL1       -0.0038
     18 C          63.2465   83.4939   12.3695 C.ar    1  UNL1       -0.0157
     19 C          63.5836   83.4531   10.9085 C.ar    1  UNL1        0.0257
     20 C          62.9707   84.4492    9.9692 C.ar    1  UNL1        0.1398
     21 F          63.3078   84.4083    8.5081 F       1  UNL1       -0.2042
     22 C          63.8594   82.4979   13.3087 C.3     1  UNL1        0.0509
     23 C          64.2866   81.1797   13.8831 C.3     1  UNL1        0.0100
     24 C          63.5377   81.2245   12.5843 C.3     1  UNL1        0.0100
     25 C          64.3941   83.4253   14.3595 C.2     1  UNL1        0.0534
     26 O          63.8760   83.3448   15.7649 O.co2   1  UNL1       -0.5489
     27 O          65.4467   84.4333   14.0048 O.co2   1  UNL1       -0.5489
@<TRIPOS>UNITY_ATOM_ATTR
26 1
charge -1
@<TRIPOS>BOND
     1     7     8    1
     2     8     9    1
     3     8    10    1
     4    10    11    1
     5    11    12    1
     6    12     1    1
     7     1     2   ar
     8     2     3   ar
     9     3     4   ar
    10     4    15    1
    11    15    16   ar
    12    16    17   ar
    13    17    18   ar
    14    18    22    1
    15    22    25    1
    16    25    26   ar
    17    25    27   ar
    18    22    23    1
    19    23    24    1
    20    18    19   ar
    21    19    20   ar
    22    20    21    1
    23     4     5   ar
    24     5     6   ar
    25    12    13    1
    26    13    14    1
    27    14     8    1
    28     6     1   ar
    29    20    15   ar
    30    24    22    1
@<TRIPOS>MOLECULE
*****
 27 30 0 0 0
SMALL
GASTEIGER

@<TRIPOS>ATOM
      1 C          60.1596   88.4721    7.6628 C.ar    1  UNL1       -0.0225
      2 C          59.9528   87.0042    7.4341 C.ar    1  UNL1       -0.0043
      3 C          60.5688   86.0055    8.3684 C.ar    1  UNL1       -0.0003
      4 C          61.3916   86.4746    9.5315 C.ar    1  UNL1        0.0021
      5 C          61.5984   87.9425    9.7603 C.ar    1  UNL1       -0.0003
      6 C          60.9824   88.9413    8.8259 C.ar    1  UNL1       -0.0043
      7 C          58.7189   92.5143    3.8644 C.3     1  UNL1        0.0000
      8 C          58.3117   91.4684    4.8597 C.3     1  UNL1        0.0000
      9 C          56.9608   91.9529    4.4234 C.3     1  UNL1        0.0000
     10 C          57.4354   90.5909    5.7034 C.3     1  UNL1        0.0003
     11 C          58.0513   89.5922    6.6378 C.3     1  UNL1        0.0044
     12 C          59.5437   89.4709    6.7284 C.3     1  UNL1        0.0223
     13 C          60.4200   90.3484    5.8847 C.3     1  UNL1        0.0044
     14 C          59.8040   91.3472    4.9504 C.3     1  UNL1        0.0003
     15 C          62.0076   85.4758   10.4659 C.ar    1  UNL1        0.0275
     16 C          61.6612   85.5010   11.9251 C.ar    1  UNL1        0.0019
     17 C          62.2772   84.5022   12.8595 C.ar    1  UNL1       -0.0038
     18 C          63.2395   83.4783   12.3346 C.ar    1  UNL1       -0.0157
     19 C          63.5858   83.4531   10.8754 C.ar    1  UNL1        0.0257
     20 C          62.9698   84.4519    9.9411 C.ar    1  UNL1        0.1398
     21 F          63.3162   84.4267    8.4817 F       1  UNL1       -0.2042
     22 C          63.8555   82.4795   13.2690 C.3     1  UNL1        0.0509
     23 C          64.2936   81.1605   13.8330 C.3     1  UNL1        0.0100
     24 C          63.5573   81.2104   12.5272 C.3     1  UNL1        0.0100
     25 C          64.3676   83.4018   14.3354 C.2     1  UNL1        0.0534
     26 O          65.4075   84.4300   14.0017 O.co2   1  UNL1       -0.5489
     27 O          63.8398   83.2958   15.7354 O.co2   1  UNL1       -0.5489
@<TRIPOS>UNITY_ATOM_ATTR
26 1
charge -1
@<TRIPOS>BOND
     1     7     8    1
     2     8     9    1
     3     8    10    1
     4    10    11    1
     5    11    12    1
     6    12     1    1
     7     1     2   ar
     8     2     3   ar
     9     3     4   ar
    10     4    15    1
    11    15    16   ar
    12    16    17   ar
    13    17    18   ar
    14    18    22    1
    15    22    25    1
    16    25    26   ar
    17    25    27   ar
    18    22    23    1
    19    23    24    1
    20    18    19   ar
    21    19    20   ar
    22    20    21    1
    23     4     5   ar
    24     5     6   ar
    25    12    13    1
    26    13    14    1
    27    14     8    1
    28     6     1   ar
    29    20    15   ar
    30    24    22    1
@<TRIPOS>MOLECULE
*****
 27 30 0 0 0
SMALL
GASTEIGER

@<TRIPOS>ATOM
      1 C          65.4971   91.5506   13.2537 C.ar    1  UNL1       -0.0225
      2 C          65.2474   92.1107   11.8848 C.ar    1  UNL1       -0.0043
      3 C          64.2088   91.4898   10.9984 C.ar    1  UNL1       -0.0003
      4 C          63.4198   90.3088   11.4808 C.ar    1  UNL1        0.0021
      5 C          63.6694   89.7488   12.8498 C.ar    1  UNL1       -0.0003
      6 C          64.7081   90.3697   13.7362 C.ar    1  UNL1       -0.0043
      7 C          69.1215   94.7664   16.3138 C.3     1  UNL1        0.0000
      8 C          68.6129   93.4133   15.9130 C.3     1  UNL1        0.0000
      9 C          69.6956   93.0115   16.8703 C.3     1  UNL1        0.0000
     10 C          68.4803   91.9208   15.8446 C.3     1  UNL1        0.0003
     11 C          67.4417   91.2999   14.9582 C.3     1  UNL1        0.0044
     12 C          66.5357   92.1715   14.1401 C.3     1  UNL1        0.0223
     13 C          66.6682   93.6640   14.2085 C.3     1  UNL1        0.0044
     14 C          67.7069   94.2849   15.0949 C.3     1  UNL1        0.0003
     15 C          62.3812   89.6879   10.5944 C.ar    1  UNL1        0.0275
     16 C          62.7021   88.4434    9.8210 C.ar    1  UNL1        0.0019
     17 C          61.6635   87.8225    8.9346 C.ar    1  UNL1       -0.0038
     18 C          60.3040   88.4462    8.8215 C.ar    1  UNL1       -0.0157
     19 C          59.9831   89.6907    9.5949 C.ar    1  UNL1        0.0257
     20 C          61.0217   90.3115   10.4814 C.ar    1  UNL1        0.1398
     21 F          60.7008   91.5561   11.2548 F       1  UNL1       -0.2042
     22 C          59.2653   87.8253    7.9351 C.3     1  UNL1        0.0509
     23 C          58.3223   86.8052    7.3694 C.3     1  UNL1        0.0100
     24 C          59.1798   86.4601    8.5507 C.3     1  UNL1        0.0100
     25 C          58.9901   88.9748    7.0116 C.2     1  UNL1        0.0534
     26 O          57.5756   89.3739    6.7119 O.co2   1  UNL1       -0.5489
     27 O          60.1293   89.7251    6.3879 O.co2   1  UNL1       -0.5489
@<TRIPOS>UNITY_ATOM_ATTR
26 1
charge -1
@<TRIPOS>BOND
     1     7     8    1
     2     8     9    1
     3     8    10    1
     4    10    11    1
     5    11    12    1
     6    12     1    1
     7     1     2   ar
     8     2     3   ar
     9     3     4   ar
    10     4    15    1
    11    15    16   ar
    12    16    17   ar
    13    17    18   ar
    14    18    22    1
    15    22    25    1
    16    25    26   ar
    17    25    27   ar
    18    22    23    1
    19    23    24    1
    20    18    19   ar
    21    19    20   ar
    22    20    21    1
    23     4     5   ar
    24     5     6   ar
    25    12    13    1
    26    13    14    1
    27    14     8    1
    28     6     1   ar
    29    20    15   ar
    30    24    22    1
@<TRIPOS>MOLECULE
*****
 27 30 0 0 0
SMALL
GASTEIGER

@<TRIPOS>ATOM
      1 C          63.3562   83.2328   12.3448 C.ar    1  UNL1       -0.0225
      2 C          62.6429   84.4009   11.7310 C.ar    1  UNL1       -0.0043
      3 C          62.8261   85.7759   12.3020 C.ar    1  UNL1       -0.0003
      4 C          63.7225   85.9827   13.4867 C.ar    1  UNL1        0.0021
      5 C          64.4357   84.8146   14.1005 C.ar    1  UNL1       -0.0003
      6 C          64.2525   83.4396   13.5296 C.ar    1  UNL1       -0.0043
      7 C          62.9006   78.3866    9.3201 C.3     1  UNL1        0.0000
      8 C          62.8067   79.1080   10.6319 C.3     1  UNL1        0.0000
      9 C          62.4322   77.7228   11.0690 C.3     1  UNL1        0.0000
     10 C          62.5828   79.3483   12.0955 C.3     1  UNL1        0.0003
     11 C          62.7659   80.7232   12.6665 C.3     1  UNL1        0.0044
     12 C          63.1730   81.8579   11.7739 C.3     1  UNL1        0.0223
     13 C          63.3969   81.6176   10.3103 C.3     1  UNL1        0.0044
     14 C          63.2138   80.2426    9.7393 C.3     1  UNL1        0.0003
     15 C          63.9056   87.3576   14.0577 C.ar    1  UNL1        0.0275
     16 C          64.0904   88.5314   13.1422 C.ar    1  UNL1        0.0019
     17 C          64.2735   89.9063   13.7132 C.ar    1  UNL1       -0.0038
     18 C          64.2719   90.1075   15.1996 C.ar    1  UNL1       -0.0157
     19 C          64.0871   88.9338   16.1150 C.ar    1  UNL1        0.0257
     20 C          63.9040   87.5588   15.5441 C.ar    1  UNL1        0.1398
     21 F          63.7192   86.3850   16.4596 F       1  UNL1       -0.2042
     22 C          64.4551   91.4825   15.7705 C.3     1  UNL1        0.0509
     23 C          64.2330   92.6947   16.6255 C.3     1  UNL1        0.0100
     24 C          63.3518   91.4916   16.7868 C.3     1  UNL1        0.0100
     25 C          65.6219   91.9509   14.9526 C.2     1  UNL1        0.0534
     26 O          67.0029   91.4539   15.2627 O.co2   1  UNL1       -0.5489
     27 O          65.4079   92.9162   13.8247 O.co2   1  UNL1       -0.5489
@<TRIPOS>UNITY_ATOM_ATTR
26 1
charge -1
@<TRIPOS>BOND
     1     7     8    1
     2     8     9    1
     3     8    10    1
     4    10    11    1
     5    11    12    1
     6    12     1    1
     7     1     2   ar
     8     2     3   ar
     9     3     4   ar
    10     4    15    1
    11    15    16   ar
    12    16    17   ar
    13    17    18   ar
    14    18    22    1
    15    22    25    1
    16    25    26   ar
    17    25    27   ar
    18    22    23    1
    19    23    24    1
    20    18    19   ar
    21    19    20   ar
    22    20    21    1
    23     4     5   ar
    24     5     6   ar
    25    12    13    1
    26    13    14    1
    27    14     8    1
    28     6     1   ar
    29    20    15   ar
    30    24    22    1
@<TRIPOS>MOLECULE
*****
 27 30 0 0 0
SMALL
GASTEIGER

@<TRIPOS>ATOM
      1 C          65.7069   91.4669   13.4675 C.ar    1  UNL1       -0.0225
      2 C          65.4068   91.9318   12.0733 C.ar    1  UNL1       -0.0043
      3 C          64.4139   91.1864   11.2315 C.ar    1  UNL1       -0.0003
      4 C          63.7211   89.9762   11.7839 C.ar    1  UNL1        0.0021
      5 C          64.0211   89.5113   13.1781 C.ar    1  UNL1       -0.0003
      6 C          65.0140   90.2566   14.0199 C.ar    1  UNL1       -0.0043
      7 C          69.7843   93.4380   16.9791 C.3     1  UNL1        0.0000
      8 C          68.6856   93.7030   15.9928 C.3     1  UNL1        0.0000
      9 C          69.1082   95.1099   16.2961 C.3     1  UNL1        0.0000
     10 C          67.7338   94.4565   15.1118 C.3     1  UNL1        0.0003
     11 C          66.7408   93.7111   14.2701 C.3     1  UNL1        0.0044
     12 C          66.6998   92.2122   14.3092 C.3     1  UNL1        0.0223
     13 C          67.6516   91.4587   15.1902 C.3     1  UNL1        0.0044
     14 C          68.6445   92.2041   16.0319 C.3     1  UNL1        0.0003
     15 C          62.7282   89.2308   10.9421 C.ar    1  UNL1        0.0275
     16 C          61.9965   89.9396    9.8411 C.ar    1  UNL1        0.0019
     17 C          61.0036   89.1942    8.9994 C.ar    1  UNL1       -0.0038
     18 C          60.7423   87.7401    9.2586 C.ar    1  UNL1       -0.0157
     19 C          61.4740   87.0314   10.3596 C.ar    1  UNL1        0.0257
     20 C          62.4669   87.7767   11.2014 C.ar    1  UNL1        0.1398
     21 F          63.1986   87.0679   12.3025 F       1  UNL1       -0.2042
     22 C          59.7494   86.9948    8.4168 C.3     1  UNL1        0.0509
     23 C          58.4444   86.6092    7.7859 C.3     1  UNL1        0.0100
     24 C          58.5057   87.7719    8.7316 C.3     1  UNL1        0.0100
     25 C          60.6483   85.9587    7.8097 C.2     1  UNL1        0.0534
     26 O          62.0993   85.9105    8.1872 O.co2   1  UNL1       -0.5489
     27 O          60.0963   84.9709    6.8251 O.co2   1  UNL1       -0.5489
@<TRIPOS>UNITY_ATOM_ATTR
26 1
charge -1
@<TRIPOS>BOND
     1     7     8    1
     2     8     9    1
     3     8    10    1
     4    10    11    1
     5    11    12    1
     6    12     1    1
     7     1     2   ar
     8     2     3   ar
     9     3     4   ar
    10     4    15    1
    11    15    16   ar
    12    16    17   ar
    13    17    18   ar
    14    18    22    1
    15    22    25    1
    16    25    26   ar
    17    25    27   ar
    18    22    23    1
    19    23    24    1
    20    18    19   ar
    21    19    20   ar
    22    20    21    1
    23     4     5   ar
    24     5     6   ar
    25    12    13    1
    26    13    14    1
    27    14     8    1
    28     6     1   ar
    29    20    15   ar
    30    24    22    1
@<TRIPOS>MOLECULE
*****
 27 30 0 0 0
SMALL
GASTEIGER

@<TRIPOS>ATOM
      1 C          62.0755   85.2400   11.0953 C.ar    1  UNL1       -0.0225
      2 C          62.3192   85.1019    9.6217 C.ar    1  UNL1       -0.0043
      3 C          61.6908   86.0700    8.6636 C.ar    1  UNL1       -0.0003
      4 C          60.8187   87.1762    9.1791 C.ar    1  UNL1        0.0021
      5 C          60.5751   87.3143   10.6527 C.ar    1  UNL1       -0.0003
      6 C          61.2035   86.3463   11.6108 C.ar    1  UNL1       -0.0043
      7 C          64.6511   82.3213   15.3012 C.3     1  UNL1        0.0000
      8 C          63.9607   82.3358   13.9696 C.3     1  UNL1        0.0000
      9 C          64.2331   80.8670   14.1058 C.3     1  UNL1        0.0000
     10 C          63.3650   81.8402   12.6853 C.3     1  UNL1        0.0003
     11 C          62.7366   82.8082   11.7272 C.3     1  UNL1        0.0044
     12 C          62.7039   84.2719   12.0534 C.3     1  UNL1        0.0223
     13 C          63.2997   84.7676   13.3377 C.3     1  UNL1        0.0044
     14 C          63.9280   83.7995   14.2958 C.3     1  UNL1        0.0003
     15 C          60.1904   88.1443    8.2210 C.ar    1  UNL1        0.0275
     16 C          59.4377   87.6363    7.0272 C.ar    1  UNL1        0.0019
     17 C          58.8093   88.6044    6.0691 C.ar    1  UNL1       -0.0038
     18 C          58.9336   90.0805    6.3049 C.ar    1  UNL1       -0.0157
     19 C          59.6862   90.5885    7.4988 C.ar    1  UNL1        0.0257
     20 C          60.3146   89.6204    8.4569 C.ar    1  UNL1        0.1398
     21 F          61.0672   90.1285    9.6508 F       1  UNL1       -0.2042
     22 C          58.3052   91.0485    5.3468 C.3     1  UNL1        0.0509
     23 C          57.2513   91.7697    4.5600 C.3     1  UNL1        0.0100
     24 C          56.8616   90.6739    5.5072 C.3     1  UNL1        0.0100
     25 C          59.5305   91.7595    4.8536 C.2     1  UNL1        0.0534
     26 O          60.8485   91.0442    4.8160 O.co2   1  UNL1       -0.5489
     27 O          59.4378   93.1856    4.3981 O.co2   1  UNL1       -0.5489
@<TRIPOS>UNITY_ATOM_ATTR
26 1
charge -1
@<TRIPOS>BOND
     1     7     8    1
     2     8     9    1
     3     8    10    1
     4    10    11    1
     5    11    12    1
     6    12     1    1
     7     1     2   ar
     8     2     3   ar
     9     3     4   ar
    10     4    15    1
    11    15    16   ar
    12    16    17   ar
    13    17    18   ar
    14    18    22    1
    15    22    25    1
    16    25    26   ar
    17    25    27   ar
    18    22    23    1
    19    23    24    1
    20    18    19   ar
    21    19    20   ar
    22    20    21    1
    23     4     5   ar
    24     5     6   ar
    25    12    13    1
    26    13    14    1
    27    14     8    1
    28     6     1   ar
    29    20    15   ar
    30    24    22    1
@<TRIPOS>MOLECULE
*****
 27 30 0 0 0
SMALL
GASTEIGER

@<TRIPOS>ATOM
      1 C          63.3098   84.8239   13.6553 C.ar    1  UNL1       -0.0225
      2 C          62.9625   85.7787   12.5519 C.ar    1  UNL1       -0.0043
      3 C          63.4345   87.2011   12.6146 C.ar    1  UNL1       -0.0003
      4 C          64.2538   87.6687   13.7807 C.ar    1  UNL1        0.0021
      5 C          64.6011   86.7139   14.8842 C.ar    1  UNL1       -0.0003
      6 C          64.1292   85.2915   14.8215 C.ar    1  UNL1       -0.0043
      7 C          62.1938   79.2772   12.7437 C.3     1  UNL1        0.0000
      8 C          61.8939   80.5566   13.4672 C.3     1  UNL1        0.0000
      9 C          60.8709   79.6566   14.0946 C.3     1  UNL1        0.0000
     10 C          61.2388   81.5234   14.4085 C.3     1  UNL1        0.0003
     11 C          61.7108   82.9458   14.4712 C.3     1  UNL1        0.0044
     12 C          62.8379   83.4015   13.5926 C.3     1  UNL1        0.0223
     13 C          63.4930   82.4347   12.6513 C.3     1  UNL1        0.0044
     14 C          63.0210   81.0123   12.5885 C.3     1  UNL1        0.0003
     15 C          64.7258   89.0912   13.8434 C.ar    1  UNL1        0.0275
     16 C          65.9209   89.4488   14.6763 C.ar    1  UNL1        0.0019
     17 C          66.3929   90.8712   14.7390 C.ar    1  UNL1       -0.0038
     18 C          65.6697   91.9360   13.9689 C.ar    1  UNL1       -0.0157
     19 C          64.4746   91.5784   13.1360 C.ar    1  UNL1        0.0257
     20 C          64.0026   90.1560   13.0733 C.ar    1  UNL1        0.1398
     21 F          62.8073   89.7984   12.2404 F       1  UNL1       -0.2042
     22 C          66.1417   93.3585   14.0316 C.3     1  UNL1        0.0509
     23 C          66.5121   94.7416   13.5849 C.3     1  UNL1        0.0100
     24 C          66.0133   93.7395   12.5865 C.3     1  UNL1        0.0100
     25 C          66.4340   93.4715   15.4985 C.2     1  UNL1        0.0534
     26 O          65.3893   93.0855   16.5033 O.co2   1  UNL1       -0.5489
     27 O          67.7710   93.9705   15.9605 O.co2   1  UNL1       -0.5489
@<TRIPOS>UNITY_ATOM_ATTR
26 1
charge -1
@<TRIPOS>BOND
     1     7     8    1
     2     8     9    1
     3     8    10    1
     4    10    11    1
     5    11    12    1
     6    12     1    1
     7     1     2   ar
     8     2     3   ar
     9     3     4   ar
    10     4    15    1
    11    15    16   ar
    12    16    17   ar
    13    17    18   ar
    14    18    22    1
    15    22    25    1
    16    25    26   ar
    17    25    27   ar
    18    22    23    1
    19    23    24    1
    20    18    19   ar
    21    19    20   ar
    22    20    21    1
    23     4     5   ar
    24     5     6   ar
    25    12    13    1
    26    13    14    1
    27    14     8    1
    28     6     1   ar
    29    20    15   ar
    30    24    22    1
