@<TRIPOS>MOLECULE
*****
 20 22 0 0 0
SMALL
GASTEIGER

@<TRIPOS>ATOM
      1 O          60.0461   88.5058   10.0270 O.2     1  UNL1       -0.2866
      2 C          61.5249   88.3114   10.1858 C.2     1  UNL1        0.1956
      3 C          62.1038   86.9276   10.1856 C.ar    1  UNL1        0.0390
      4 C          62.5648   86.3076    8.8999 C.ar    1  UNL1        0.0032
      5 C          63.1437   84.9239    8.8996 C.ar    1  UNL1        0.0001
      6 C          63.2616   84.1599   10.1852 C.ar    1  UNL1        0.0000
      7 C          63.8405   82.7762   10.1849 C.ar    1  UNL1        0.0000
      8 C          63.9584   82.0123   11.4704 C.ar    1  UNL1        0.0000
      9 C          63.4974   82.6322   12.7562 C.ar    1  UNL1        0.0000
     10 C          62.9185   84.0160   12.7565 C.ar    1  UNL1        0.0000
     11 C          62.8006   84.7799   11.4709 C.ar    1  UNL1        0.0001
     12 C          62.2217   86.1637   11.4711 C.ar    1  UNL1        0.0032
     13 C          62.4249   89.5008   10.3449 C.2     1  UNL1        0.0421
     14 C          63.0377   89.8045   11.6798 C.2     1  UNL1        0.0048
     15 C          63.9377   90.9939   11.8389 C.ar    1  UNL1        0.0193
     16 C          64.3066   91.8205   10.6428 C.ar    1  UNL1        0.0031
     17 C          65.2066   93.0100   10.8018 C.ar    1  UNL1        0.0207
     18 C          65.7377   93.3728   12.1569 C.ar    1  UNL1        0.0989
     19 N          65.3688   92.5462   13.3530 N.ar    1  UNL1       -0.2423
     20 C          64.4688   91.3567   13.1939 C.ar    1  UNL1        0.0988
@<TRIPOS>BOND
     1     1     2    2
     2     2    13    1
     3    13    14    2
     4    14    15    1
     5    15    16   ar
     6    16    17   ar
     7    17    18   ar
     8    18    19   ar
     9    19    20   ar
    10     2     3    1
    11     3     4   ar
    12     4     5   ar
    13     5     6   ar
    14     6     7   ar
    15     7     8   ar
    16     8     9   ar
    17     9    10   ar
    18    10    11   ar
    19    11    12   ar
    20    20    15   ar
    21    12     3   ar
    22    11     6   ar
@<TRIPOS>MOLECULE
*****
 20 22 0 0 0
SMALL
GASTEIGER

@<TRIPOS>ATOM
      1 O          60.3824   89.5863   12.4420 O.2     1  UNL1       -0.2866
      2 C          61.5174   89.5431   11.4624 C.2     1  UNL1        0.1956
      3 C          62.7605   90.3426   11.7189 C.ar    1  UNL1        0.0390
      4 C          63.3214   91.2231   10.6418 C.ar    1  UNL1        0.0032
      5 C          64.5644   92.0226   10.8983 C.ar    1  UNL1        0.0001
      6 C          65.2464   91.9417   12.2319 C.ar    1  UNL1        0.0000
      7 C          66.4894   92.7412   12.4883 C.ar    1  UNL1        0.0000
      8 C          67.1714   92.6602   13.8218 C.ar    1  UNL1        0.0000
      9 C          66.6104   91.7797   14.8989 C.ar    1  UNL1        0.0000
     10 C          65.3674   90.9802   14.6424 C.ar    1  UNL1        0.0000
     11 C          64.6855   91.0612   13.3089 C.ar    1  UNL1        0.0001
     12 C          63.4424   90.2616   13.0524 C.ar    1  UNL1        0.0032
     13 C          61.4095   88.7003   10.2262 C.2     1  UNL1        0.0421
     14 C          61.7519   87.2410   10.2812 C.2     1  UNL1        0.0048
     15 C          61.6440   86.3982    9.0450 C.ar    1  UNL1        0.0193
     16 C          62.8478   85.6680    8.5277 C.ar    1  UNL1        0.0031
     17 C          62.7399   84.8253    7.2915 C.ar    1  UNL1        0.0207
     18 C          61.4282   84.7127    6.5727 C.ar    1  UNL1        0.0989
     19 N          60.2244   85.4429    7.0900 N.ar    1  UNL1       -0.2423
     20 C          60.3323   86.2856    8.3262 C.ar    1  UNL1        0.0988
@<TRIPOS>BOND
     1     1     2    2
     2     2    13    1
     3    13    14    2
     4    14    15    1
     5    15    16   ar
     6    16    17   ar
     7    17    18   ar
     8    18    19   ar
     9    19    20   ar
    10     2     3    1
    11     3     4   ar
    12     4     5   ar
    13     5     6   ar
    14     6     7   ar
    15     7     8   ar
    16     8     9   ar
    17     9    10   ar
    18    10    11   ar
    19    11    12   ar
    20    20    15   ar
    21    12     3   ar
    22    11     6   ar
@<TRIPOS>MOLECULE
*****
 20 22 0 0 0
SMALL
GASTEIGER

@<TRIPOS>ATOM
      1 O          63.5849   91.5234   14.9294 O.2     1  UNL1       -0.2866
      2 C          64.0061   90.8466   13.6588 C.2     1  UNL1        0.1956
      3 C          63.8521   89.3615   13.5134 C.ar    1  UNL1        0.0390
      4 C          64.4205   88.4431   14.5543 C.ar    1  UNL1        0.0032
      5 C          64.2665   86.9581   14.4089 C.ar    1  UNL1        0.0001
      6 C          63.5440   86.3916   13.2226 C.ar    1  UNL1        0.0000
      7 C          63.3899   84.9066   13.0773 C.ar    1  UNL1        0.0000
      8 C          62.6675   84.3402   11.8911 C.ar    1  UNL1        0.0000
      9 C          62.0991   85.2586   10.8502 C.ar    1  UNL1        0.0000
     10 C          62.2531   86.7436   10.9956 C.ar    1  UNL1        0.0000
     11 C          62.9756   87.3100   12.1818 C.ar    1  UNL1        0.0001
     12 C          63.1296   88.7951   12.3272 C.ar    1  UNL1        0.0032
     13 C          64.5815   91.6546   12.5337 C.2     1  UNL1        0.0421
     14 C          65.9818   92.1836   12.6298 C.2     1  UNL1        0.0048
     15 C          66.5571   92.9917   11.5046 C.ar    1  UNL1        0.0193
     16 C          67.4012   92.3262   10.4584 C.ar    1  UNL1        0.0031
     17 C          67.9765   93.1342    9.3332 C.ar    1  UNL1        0.0207
     18 C          67.7078   94.6078    9.2543 C.ar    1  UNL1        0.0989
     19 N          66.8638   95.2733   10.3005 N.ar    1  UNL1       -0.2423
     20 C          66.2885   94.4653   11.4256 C.ar    1  UNL1        0.0988
@<TRIPOS>BOND
     1     1     2    2
     2     2    13    1
     3    13    14    2
     4    14    15    1
     5    15    16   ar
     6    16    17   ar
     7    17    18   ar
     8    18    19   ar
     9    19    20   ar
    10     2     3    1
    11     3     4   ar
    12     4     5   ar
    13     5     6   ar
    14     6     7   ar
    15     7     8   ar
    16     8     9   ar
    17     9    10   ar
    18    10    11   ar
    19    11    12   ar
    20    20    15   ar
    21    12     3   ar
    22    11     6   ar
@<TRIPOS>MOLECULE
*****
 20 22 0 0 0
SMALL
GASTEIGER

@<TRIPOS>ATOM
      1 O          63.4285   90.6598   13.3578 O.2     1  UNL1       -0.2866
      2 C          63.4131   90.6137   11.8587 C.2     1  UNL1        0.1956
      3 C          62.6391   89.5424   11.1491 C.ar    1  UNL1        0.0390
      4 C          62.8036   88.1068   11.5516 C.ar    1  UNL1        0.0032
      5 C          62.0297   87.0356   10.8421 C.ar    1  UNL1        0.0001
      6 C          61.0911   87.3999    9.7301 C.ar    1  UNL1        0.0000
      7 C          60.3172   86.3287    9.0206 C.ar    1  UNL1        0.0000
      8 C          59.3788   86.6930    7.9087 C.ar    1  UNL1        0.0000
      9 C          59.2142   88.1286    7.5062 C.ar    1  UNL1        0.0000
     10 C          59.9882   89.1999    8.2157 C.ar    1  UNL1        0.0000
     11 C          60.9266   88.8355    9.3276 C.ar    1  UNL1        0.0001
     12 C          61.7006   89.9068   10.0372 C.ar    1  UNL1        0.0032
     13 C          64.1716   91.6389   11.0689 C.2     1  UNL1        0.0421
     14 C          65.4061   92.2666   11.6450 C.2     1  UNL1        0.0048
     15 C          66.1646   93.2918   10.8553 C.ar    1  UNL1        0.0193
     16 C          67.2787   92.8646    9.9463 C.ar    1  UNL1        0.0031
     17 C          68.0372   93.8898    9.1565 C.ar    1  UNL1        0.0207
     18 C          67.6817   95.3421    9.2758 C.ar    1  UNL1        0.0989
     19 N          66.5676   95.7693   10.1849 N.ar    1  UNL1       -0.2423
     20 C          65.8091   94.7441   10.9746 C.ar    1  UNL1        0.0988
@<TRIPOS>BOND
     1     1     2    2
     2     2    13    1
     3    13    14    2
     4    14    15    1
     5    15    16   ar
     6    16    17   ar
     7    17    18   ar
     8    18    19   ar
     9    19    20   ar
    10     2     3    1
    11     3     4   ar
    12     4     5   ar
    13     5     6   ar
    14     6     7   ar
    15     7     8   ar
    16     8     9   ar
    17     9    10   ar
    18    10    11   ar
    19    11    12   ar
    20    20    15   ar
    21    12     3   ar
    22    11     6   ar
@<TRIPOS>MOLECULE
*****
 20 22 0 0 0
SMALL
GASTEIGER

@<TRIPOS>ATOM
      1 O          60.8705   86.9469    9.4536 O.2     1  UNL1       -0.2866
      2 C          61.6579   86.9669   10.7301 C.2     1  UNL1        0.1956
      3 C          62.3838   88.2126   11.1442 C.ar    1  UNL1        0.0390
      4 C          62.4109   89.4031   10.2320 C.ar    1  UNL1        0.0032
      5 C          63.1367   90.6488   10.6461 C.ar    1  UNL1        0.0001
      6 C          63.8355   90.7040   11.9722 C.ar    1  UNL1        0.0000
      7 C          64.5613   91.9496   12.3863 C.ar    1  UNL1        0.0000
      8 C          65.2601   92.0048   13.7124 C.ar    1  UNL1        0.0000
      9 C          65.2330   90.8143   14.6245 C.ar    1  UNL1        0.0000
     10 C          64.5072   89.5686   14.2105 C.ar    1  UNL1        0.0000
     11 C          63.8084   89.5135   12.8844 C.ar    1  UNL1        0.0001
     12 C          63.0825   88.2678   12.4703 C.ar    1  UNL1        0.0032
     13 C          61.7194   85.7412   11.5926 C.2     1  UNL1        0.0421
     14 C          62.7272   84.6690   11.3014 C.2     1  UNL1        0.0048
     15 C          62.7887   83.4434   12.1639 C.ar    1  UNL1        0.0193
     16 C          62.8429   82.0839   11.5325 C.ar    1  UNL1        0.0031
     17 C          62.9044   80.8582   12.3950 C.ar    1  UNL1        0.0207
     18 C          62.9118   80.9920   13.8890 C.ar    1  UNL1        0.0989
     19 N          62.8576   82.3515   14.5204 N.ar    1  UNL1       -0.2423
     20 C          62.7961   83.5772   13.6579 C.ar    1  UNL1        0.0988
@<TRIPOS>BOND
     1     1     2    2
     2     2    13    1
     3    13    14    2
     4    14    15    1
     5    15    16   ar
     6    16    17   ar
     7    17    18   ar
     8    18    19   ar
     9    19    20   ar
    10     2     3    1
    11     3     4   ar
    12     4     5   ar
    13     5     6   ar
    14     6     7   ar
    15     7     8   ar
    16     8     9   ar
    17     9    10   ar
    18    10    11   ar
    19    11    12   ar
    20    20    15   ar
    21    12     3   ar
    22    11     6   ar
@<TRIPOS>MOLECULE
*****
 20 22 0 0 0
SMALL
GASTEIGER

@<TRIPOS>ATOM
      1 O          63.6270   86.4295   16.7862 O.2     1  UNL1       -0.2866
      2 C          63.8174   86.3059   15.3035 C.2     1  UNL1        0.1956
      3 C          63.5042   85.0118   14.6124 C.ar    1  UNL1        0.0390
      4 C          62.7198   83.9511   15.3262 C.ar    1  UNL1        0.0032
      5 C          62.4066   82.6572   14.6352 C.ar    1  UNL1        0.0001
      6 C          62.8779   82.4239   13.2303 C.ar    1  UNL1        0.0000
      7 C          62.5647   81.1299   12.5394 C.ar    1  UNL1        0.0000
      8 C          63.0359   80.8966   11.1346 C.ar    1  UNL1        0.0000
      9 C          63.8204   81.9574   10.4208 C.ar    1  UNL1        0.0000
     10 C          64.1336   83.2513   11.1118 C.ar    1  UNL1        0.0000
     11 C          63.6623   83.4846   12.5165 C.ar    1  UNL1        0.0001
     12 C          63.9755   84.7786   13.2076 C.ar    1  UNL1        0.0032
     13 C          64.3210   87.4762   14.5118 C.2     1  UNL1        0.0421
     14 C          63.9543   88.8719   14.9208 C.2     1  UNL1        0.0048
     15 C          64.4578   90.0423   14.1291 C.ar    1  UNL1        0.0193
     16 C          63.8138   90.3960   12.8214 C.ar    1  UNL1        0.0031
     17 C          64.3174   91.5663   12.0297 C.ar    1  UNL1        0.0207
     18 C          65.4650   92.3829   12.5457 C.ar    1  UNL1        0.0989
     19 N          66.1089   92.0291   13.8534 N.ar    1  UNL1       -0.2423
     20 C          65.6054   90.8588   14.6451 C.ar    1  UNL1        0.0988
@<TRIPOS>BOND
     1     1     2    2
     2     2    13    1
     3    13    14    2
     4    14    15    1
     5    15    16   ar
     6    16    17   ar
     7    17    18   ar
     8    18    19   ar
     9    19    20   ar
    10     2     3    1
    11     3     4   ar
    12     4     5   ar
    13     5     6   ar
    14     6     7   ar
    15     7     8   ar
    16     8     9   ar
    17     9    10   ar
    18    10    11   ar
    19    11    12   ar
    20    20    15   ar
    21    12     3   ar
    22    11     6   ar
@<TRIPOS>MOLECULE
*****
 20 22 0 0 0
SMALL
GASTEIGER

@<TRIPOS>ATOM
      1 O          60.5969   89.3934   12.2849 O.2     1  UNL1       -0.2866
      2 C          62.0029   89.1386   11.8288 C.2     1  UNL1        0.1956
      3 C          63.1533   89.7701   12.5555 C.ar    1  UNL1        0.0390
      4 C          63.7031   89.1255   13.7933 C.ar    1  UNL1        0.0032
      5 C          64.8534   89.7569   14.5200 C.ar    1  UNL1        0.0001
      6 C          65.4538   91.0330   14.0090 C.ar    1  UNL1        0.0000
      7 C          66.6041   91.6644   14.7357 C.ar    1  UNL1        0.0000
      8 C          67.2044   92.9405   14.2247 C.ar    1  UNL1        0.0000
      9 C          66.6546   93.5851   12.9869 C.ar    1  UNL1        0.0000
     10 C          65.5043   92.9537   12.2602 C.ar    1  UNL1        0.0000
     11 C          64.9040   91.6776   12.7712 C.ar    1  UNL1        0.0001
     12 C          63.7536   91.0462   12.0445 C.ar    1  UNL1        0.0032
     13 C          62.2588   88.2524   10.6459 C.2     1  UNL1        0.0421
     14 C          61.1996   87.2972   10.1814 C.2     1  UNL1        0.0048
     15 C          61.4555   86.4110    8.9985 C.ar    1  UNL1        0.0193
     16 C          60.3737   86.1822    7.9849 C.ar    1  UNL1        0.0031
     17 C          60.6296   85.2960    6.8020 C.ar    1  UNL1        0.0207
     18 C          61.9671   84.6385    6.6328 C.ar    1  UNL1        0.0989
     19 N          63.0488   84.8673    7.6464 N.ar    1  UNL1       -0.2423
     20 C          62.7930   85.7536    8.8293 C.ar    1  UNL1        0.0988
@<TRIPOS>BOND
     1     1     2    2
     2     2    13    1
     3    13    14    2
     4    14    15    1
     5    15    16   ar
     6    16    17   ar
     7    17    18   ar
     8    18    19   ar
     9    19    20   ar
    10     2     3    1
    11     3     4   ar
    12     4     5   ar
    13     5     6   ar
    14     6     7   ar
    15     7     8   ar
    16     8     9   ar
    17     9    10   ar
    18    10    11   ar
    19    11    12   ar
    20    20    15   ar
    21    12     3   ar
    22    11     6   ar
@<TRIPOS>MOLECULE
*****
 20 22 0 0 0
SMALL
GASTEIGER

@<TRIPOS>ATOM
      1 O          60.5198   89.0159   10.8394 O.2     1  UNL1       -0.2866
      2 C          61.9346   88.6019   11.1164 C.2     1  UNL1        0.1956
      3 C          62.9048   89.5882   11.6963 C.ar    1  UNL1        0.0390
      4 C          63.3596   89.4452   13.1185 C.ar    1  UNL1        0.0032
      5 C          64.3298   90.4314   13.6984 C.ar    1  UNL1        0.0001
      6 C          64.8451   91.5606   12.8560 C.ar    1  UNL1        0.0000
      7 C          65.8152   92.5468   13.4359 C.ar    1  UNL1        0.0000
      8 C          66.3305   93.6759   12.5935 C.ar    1  UNL1        0.0000
      9 C          65.8756   93.8188   11.1713 C.ar    1  UNL1        0.0000
     10 C          64.9055   92.8326   10.5914 C.ar    1  UNL1        0.0000
     11 C          64.3902   91.7035   11.4338 C.ar    1  UNL1        0.0001
     12 C          63.4201   90.7173   10.8539 C.ar    1  UNL1        0.0032
     13 C          62.3794   87.2017   10.8136 C.2     1  UNL1        0.0421
     14 C          62.3649   86.1602   11.8929 C.2     1  UNL1        0.0048
     15 C          62.8096   84.7601   11.5901 C.ar    1  UNL1        0.0193
     16 C          63.3822   84.4297   10.2437 C.ar    1  UNL1        0.0031
     17 C          63.8270   83.0295    9.9409 C.ar    1  UNL1        0.0207
     18 C          63.6992   81.9597   10.9845 C.ar    1  UNL1        0.0989
     19 N          63.1266   82.2901   12.3309 N.ar    1  UNL1       -0.2423
     20 C          62.6818   83.6903   12.6337 C.ar    1  UNL1        0.0988
@<TRIPOS>BOND
     1     1     2    2
     2     2    13    1
     3    13    14    2
     4    14    15    1
     5    15    16   ar
     6    16    17   ar
     7    17    18   ar
     8    18    19   ar
     9    19    20   ar
    10     2     3    1
    11     3     4   ar
    12     4     5   ar
    13     5     6   ar
    14     6     7   ar
    15     7     8   ar
    16     8     9   ar
    17     9    10   ar
    18    10    11   ar
    19    11    12   ar
    20    20    15   ar
    21    12     3   ar
    22    11     6   ar
@<TRIPOS>MOLECULE
*****
 20 22 0 0 0
SMALL
GASTEIGER

@<TRIPOS>ATOM
      1 O          63.8989   87.6207   13.6565 O.2     1  UNL1       -0.2866
      2 C          63.2539   86.7797   12.5951 C.2     1  UNL1        0.1956
      3 C          62.4561   87.4307   11.5042 C.ar    1  UNL1        0.0390
      4 C          62.5080   88.9188   11.3229 C.ar    1  UNL1        0.0032
      5 C          61.7103   89.5697   10.2321 C.ar    1  UNL1        0.0001
      6 C          60.8606   88.7325    9.3226 C.ar    1  UNL1        0.0000
      7 C          60.0628   89.3835    8.2318 C.ar    1  UNL1        0.0000
      8 C          59.2132   88.5463    7.3223 C.ar    1  UNL1        0.0000
      9 C          59.1613   87.0582    7.5036 C.ar    1  UNL1        0.0000
     10 C          59.9590   86.4073    8.5944 C.ar    1  UNL1        0.0000
     11 C          60.8086   87.2444    9.5039 C.ar    1  UNL1        0.0001
     12 C          61.6064   86.5935   10.5948 C.ar    1  UNL1        0.0032
     13 C          63.4065   85.2878   12.6245 C.2     1  UNL1        0.0421
     14 C          62.2972   84.4307   13.1580 C.2     1  UNL1        0.0048
     15 C          62.4499   82.9388   13.1874 C.ar    1  UNL1        0.0193
     16 C          62.7125   82.1866   11.9165 C.ar    1  UNL1        0.0031
     17 C          62.8651   80.6947   11.9459 C.ar    1  UNL1        0.0207
     18 C          62.7552   79.9550   13.2462 C.ar    1  UNL1        0.0989
     19 N          62.4926   80.7072   14.5170 N.ar    1  UNL1       -0.2423
     20 C          62.3400   82.1991   14.4876 C.ar    1  UNL1        0.0988
@<TRIPOS>BOND
     1     1     2    2
     2     2    13    1
     3    13    14    2
     4    14    15    1
     5    15    16   ar
     6    16    17   ar
     7    17    18   ar
     8    18    19   ar
     9    19    20   ar
    10     2     3    1
    11     3     4   ar
    12     4     5   ar
    13     5     6   ar
    14     6     7   ar
    15     7     8   ar
    16     8     9   ar
    17     9    10   ar
    18    10    11   ar
    19    11    12   ar
    20    20    15   ar
    21    12     3   ar
    22    11     6   ar
