@<TRIPOS>MOLECULE
*****
 43 47 0 0 0
SMALL
GASTEIGER

@<TRIPOS>ATOM
      1 C          62.4350   89.0303   11.1974 C.ar    1  UNL1       -0.0052
      2 C          62.5276   90.5265   11.1458 C.ar    1  UNL1       -0.0029
      3 C          63.2855   91.2681   12.2068 C.ar    1  UNL1       -0.0006
      4 C          63.9506   90.5134   13.3194 C.ar    1  UNL1       -0.0041
      5 C          63.8580   89.0171   13.3711 C.ar    1  UNL1       -0.0231
      6 C          63.1002   88.2756   12.3100 C.ar    1  UNL1       -0.0085
      7 C          63.0076   86.7793   12.3616 C.3     1  UNL1        0.1211
      8 N          63.6727   86.0247   13.4742 N.am    1  UNL1       -0.2598
      9 C          63.5801   84.5284   13.5258 C.2     1  UNL1        0.3041
     10 O          64.2453   83.7737   14.6385 O.2     1  UNL1       -0.2526
     11 N          62.8223   83.7868   12.4648 N.am    1  UNL1       -0.2919
     12 C          64.4306   86.7662   14.5353 C.3     1  UNL1        0.0999
     13 C          64.5232   88.2624   14.4837 C.3     1  UNL1        0.0476
     14 H          62.3857   84.2822   11.7346 H       1  UNL1        0.1508
     15 C          64.7085   91.2550   14.3805 C.ar    1  UNL1        0.0027
     16 C          64.1695   91.3221   15.7788 C.ar    1  UNL1        0.0002
     17 C          64.9274   92.0637   16.8398 C.ar    1  UNL1        0.0031
     18 C          66.2241   92.7381   16.5025 C.ar    1  UNL1        0.0372
     19 C          66.7630   92.6709   15.1043 C.ar    1  UNL1        0.1468
     20 C          66.0052   91.9293   14.0433 C.ar    1  UNL1        0.0372
     21 O          68.0598   93.3452   14.7671 O.3     1  UNL1       -0.4045
     22 C          69.1283   93.4808   15.8111 C.3     1  UNL1        0.5753
     23 F          70.1969   93.6163   16.8550 F       1  UNL1       -0.1328
     24 F          68.7696   94.9262   15.9906 F       1  UNL1       -0.1328
     25 F          69.4871   92.0354   15.6315 F       1  UNL1       -0.1328
     26 C          62.7297   82.2906   12.5164 C.3     1  UNL1        0.0583
     27 C          61.9097   82.3846   13.7689 C.3     1  UNL1        0.0197
     28 C          63.5496   82.1967   11.2639 C.3     1  UNL1        0.0197
     29 C          62.6370   80.7943   12.5679 C.3     1  UNL1        0.0197
     30 C          61.6772   88.2888   10.1363 C.3     1  UNL1        0.1161
     31 C          60.1521   88.3059    8.0330 C.2     1  UNL1        0.2227
     32 O          60.2028   86.8076    7.9840 O.2     1  UNL1       -0.2751
     33 N          60.8893   89.0465    9.1092 N.am    1  UNL1       -0.3004
     34 H          60.8560   90.0299    9.1414 H       1  UNL1        0.1497
     35 C          59.3127   90.0428    5.8707 C.3     1  UNL1        0.0883
     36 C          58.0511   89.3972    6.3621 C.3     1  UNL1        0.0194
     37 C          59.3642   89.0637    7.0059 C.3     1  UNL1        0.0858
     38 C          60.2195   93.8622    2.3393 C.3     1  UNL1        0.0773
     39 C          60.4282   92.7364    3.3084 C.ar    1  UNL1        0.1809
     40 N          61.7448   92.1123    3.6644 N.ar    1  UNL1       -0.0606
     41 O          61.4873   91.0272    4.6676 O.2     1  UNL1       -0.3374
     42 C          60.0113   90.9808    4.9316 C.ar    1  UNL1        0.2363
     43 N          59.3568   92.0372    4.0915 N.ar    1  UNL1       -0.1949
@<TRIPOS>BOND
     1    38    39    1
     2    39    40   ar
     3    40    41   ar
     4    41    42   ar
     5    35    42    1
     6    35    36    1
     7    36    37    1
     8    37    31    1
     9    31    32    2
    10    31    33   am
    11    33    30    1
    12    30     1    1
    13     1     2   ar
    14     2     3   ar
    15     3     4   ar
    16     4    15    1
    17    15    16   ar
    18    16    17   ar
    19    17    18   ar
    20    18    19   ar
    21    19    21    1
    22    21    22    1
    23    22    23    1
    24    22    24    1
    25    22    25    1
    26    19    20   ar
    27     4     5   ar
    28     5     6   ar
    29     6     7    1
    30     7     8    1
    31     8     9   am
    32     9    10    2
    33     9    11   am
    34    11    26    1
    35    26    27    1
    36    26    28    1
    37    26    29    1
    38     8    12    1
    39    12    13    1
    40    42    43   ar
    41    43    39   ar
    42    37    35    1
    43     6     1   ar
    44    20    15   ar
    45    13     5    1
    46    33    34    1
    47    11    14    1
@<TRIPOS>MOLECULE
*****
 43 47 0 0 0
SMALL
GASTEIGER

@<TRIPOS>ATOM
      1 C          62.6150   88.8469   11.7801 C.ar    1  UNL1       -0.0052
      2 C          63.3721   88.2570   12.9328 C.ar    1  UNL1       -0.0029
      3 C          63.5296   86.7694   13.0441 C.ar    1  UNL1       -0.0006
      4 C          62.9300   85.8718   12.0027 C.ar    1  UNL1       -0.0041
      5 C          62.1729   86.4617   10.8499 C.ar    1  UNL1       -0.0231
      6 C          62.0154   87.9492   10.7386 C.ar    1  UNL1       -0.0085
      7 C          61.2584   88.5391    9.5858 C.3     1  UNL1        0.1211
      8 N          60.6588   87.6414    8.5444 N.am    1  UNL1       -0.2598
      9 C          59.9017   88.2313    7.3916 C.2     1  UNL1        0.3041
     10 O          59.3021   87.3337    6.3501 O.2     1  UNL1       -0.2526
     11 N          59.7442   89.7189    7.2803 N.am    1  UNL1       -0.2919
     12 C          60.8163   86.1539    8.6557 C.3     1  UNL1        0.0999
     13 C          61.5733   85.5640    9.8084 C.3     1  UNL1        0.0476
     14 H          60.1377   90.3080    7.9639 H       1  UNL1        0.1508
     15 C          63.0875   84.3842   12.1140 C.ar    1  UNL1        0.0027
     16 C          63.8916   83.6366   11.0919 C.ar    1  UNL1        0.0002
     17 C          64.0491   82.1490   11.2032 C.ar    1  UNL1        0.0031
     18 C          63.4024   81.4091   12.3366 C.ar    1  UNL1        0.0372
     19 C          62.5984   82.1567   13.3585 C.ar    1  UNL1        0.1468
     20 C          62.4409   83.6443   13.2473 C.ar    1  UNL1        0.0372
     21 O          61.9517   81.4168   14.4919 O.3     1  UNL1       -0.4045
     22 C          61.0759   80.2318   14.2112 C.3     1  UNL1        0.5753
     23 F          60.2001   79.0468   13.9305 F       1  UNL1       -0.1328
     24 F          59.8697   81.1234   14.2108 F       1  UNL1       -0.1328
     25 F          62.2822   79.3402   14.2116 F       1  UNL1       -0.1328
     26 C          58.9872   90.3088    6.1276 C.3     1  UNL1        0.0583
     27 C          57.7049   89.7808    6.6994 C.3     1  UNL1        0.0197
     28 C          60.2694   90.8368    5.5557 C.3     1  UNL1        0.0197
     29 C          58.2301   90.8987    4.9747 C.3     1  UNL1        0.0197
     30 C          62.4576   90.3344   11.6688 C.3     1  UNL1        0.1161
     31 C          64.2562   91.6695   12.9850 C.2     1  UNL1        0.2227
     32 O          63.6334   91.2338   14.2782 O.2     1  UNL1       -0.2751
     33 N          63.6683   91.2197   11.6804 N.am    1  UNL1       -0.3004
     34 H          64.0772   91.5057   10.8316 H       1  UNL1        0.1497
     35 C          66.4456   93.4270   12.2673 C.3     1  UNL1        0.0883
     36 C          66.5858   93.2161   13.7457 C.3     1  UNL1        0.0194
     37 C          65.4671   92.5548   12.9965 C.3     1  UNL1        0.0858
     38 C          67.1791   96.8530    8.3169 C.3     1  UNL1        0.0773
     39 C          67.2667   95.6271    9.1768 C.ar    1  UNL1        0.1809
     40 N          68.0818   94.4021    8.8853 N.ar    1  UNL1       -0.0606
     41 O          67.8735   93.4288   10.0075 O.2     1  UNL1       -0.3374
     42 C          66.9295   94.0523   10.9926 C.ar    1  UNL1        0.2363
     43 N          66.5545   95.4109   10.4792 N.ar    1  UNL1       -0.1949
@<TRIPOS>BOND
     1    38    39    1
     2    39    40   ar
     3    40    41   ar
     4    41    42   ar
     5    35    42    1
     6    35    36    1
     7    36    37    1
     8    37    31    1
     9    31    32    2
    10    31    33   am
    11    33    30    1
    12    30     1    1
    13     1     2   ar
    14     2     3   ar
    15     3     4   ar
    16     4    15    1
    17    15    16   ar
    18    16    17   ar
    19    17    18   ar
    20    18    19   ar
    21    19    21    1
    22    21    22    1
    23    22    23    1
    24    22    24    1
    25    22    25    1
    26    19    20   ar
    27     4     5   ar
    28     5     6   ar
    29     6     7    1
    30     7     8    1
    31     8     9   am
    32     9    10    2
    33     9    11   am
    34    11    26    1
    35    26    27    1
    36    26    28    1
    37    26    29    1
    38     8    12    1
    39    12    13    1
    40    42    43   ar
    41    43    39   ar
    42    37    35    1
    43     6     1   ar
    44    20    15   ar
    45    13     5    1
    46    33    34    1
    47    11    14    1
@<TRIPOS>MOLECULE
*****
 43 47 0 0 0
SMALL
GASTEIGER

@<TRIPOS>ATOM
      1 C          62.0975   88.0842   10.5100 C.ar    1  UNL1       -0.0052
      2 C          62.1738   89.5510   10.2057 C.ar    1  UNL1       -0.0029
      3 C          62.9268   90.4690   11.1224 C.ar    1  UNL1       -0.0006
      4 C          63.6034   89.9201   12.3434 C.ar    1  UNL1       -0.0041
      5 C          63.5271   88.4532   12.6478 C.ar    1  UNL1       -0.0231
      6 C          62.7741   87.5353   11.7310 C.ar    1  UNL1       -0.0085
      7 C          62.6978   86.0685   12.0353 C.3     1  UNL1        0.1211
      8 N          63.3744   85.5197   13.2563 N.am    1  UNL1       -0.2598
      9 C          63.2981   84.0528   13.5607 C.2     1  UNL1        0.3041
     10 O          63.9747   83.5039   14.7817 O.2     1  UNL1       -0.2526
     11 N          62.5451   83.1348   12.6439 N.am    1  UNL1       -0.2919
     12 C          64.1273   86.4376   14.1730 C.3     1  UNL1        0.0999
     13 C          64.2037   87.9044   13.8688 C.3     1  UNL1        0.0476
     14 H          62.1010   83.4951   11.8425 H       1  UNL1        0.1508
     15 C          64.3564   90.8381   13.2602 C.ar    1  UNL1        0.0027
     16 C          64.2203   90.6906   14.7467 C.ar    1  UNL1        0.0002
     17 C          64.9733   91.6086   15.6635 C.ar    1  UNL1        0.0031
     18 C          65.8623   92.6740   15.0936 C.ar    1  UNL1        0.0372
     19 C          65.9983   92.8214   13.6071 C.ar    1  UNL1        0.1468
     20 C          65.2453   91.9034   12.6904 C.ar    1  UNL1        0.0372
     21 O          66.8873   93.8868   13.0373 O.3     1  UNL1       -0.4045
     22 C          66.5994   94.4571   11.6801 C.3     1  UNL1        0.5753
     23 F          66.3115   95.0274   10.3230 F       1  UNL1       -0.1328
     24 F          67.1426   93.2129   11.0421 F       1  UNL1       -0.1328
     25 F          66.0562   95.7012   12.3182 F       1  UNL1       -0.1328
     26 C          62.4687   81.6680   12.9482 C.3     1  UNL1        0.0583
     27 C          61.6650   81.9652   14.1793 C.3     1  UNL1        0.0197
     28 C          63.2725   81.3708   11.7171 C.3     1  UNL1        0.0197
     29 C          62.3924   80.2011   13.2525 C.3     1  UNL1        0.0197
     30 C          61.3445   87.1662    9.5932 C.3     1  UNL1        0.1161
     31 C          59.8779   88.9269    8.3688 C.2     1  UNL1        0.2227
     32 O          59.6209   89.6204    9.6738 O.2     1  UNL1       -0.2751
     33 N          60.7397   87.6998    8.3286 N.am    1  UNL1       -0.3004
     34 H          60.9083   87.2446    7.4720 H       1  UNL1        0.1497
     35 C          59.4073   90.2315    5.8245 C.3     1  UNL1        0.0883
     36 C          58.0912   89.6135    6.1931 C.3     1  UNL1        0.0194
     37 C          59.2730   89.4604    7.1041 C.3     1  UNL1        0.0858
     38 C          60.8772   93.7093    2.1333 C.3     1  UNL1        0.0773
     39 C          60.9203   92.6321    3.1762 C.ar    1  UNL1        0.1809
     40 N          62.1463   91.9032    3.6407 N.ar    1  UNL1       -0.0606
     41 O          61.7288   90.9152    4.6893 O.2     1  UNL1       -0.3374
     42 C          60.2447   91.0335    4.8729 C.ar    1  UNL1        0.2363
     43 N          59.7451   92.0946    3.9377 N.ar    1  UNL1       -0.1949
@<TRIPOS>BOND
     1    38    39    1
     2    39    40   ar
     3    40    41   ar
     4    41    42   ar
     5    35    42    1
     6    35    36    1
     7    36    37    1
     8    37    31    1
     9    31    32    2
    10    31    33   am
    11    33    30    1
    12    30     1    1
    13     1     2   ar
    14     2     3   ar
    15     3     4   ar
    16     4    15    1
    17    15    16   ar
    18    16    17   ar
    19    17    18   ar
    20    18    19   ar
    21    19    21    1
    22    21    22    1
    23    22    23    1
    24    22    24    1
    25    22    25    1
    26    19    20   ar
    27     4     5   ar
    28     5     6   ar
    29     6     7    1
    30     7     8    1
    31     8     9   am
    32     9    10    2
    33     9    11   am
    34    11    26    1
    35    26    27    1
    36    26    28    1
    37    26    29    1
    38     8    12    1
    39    12    13    1
    40    42    43   ar
    41    43    39   ar
    42    37    35    1
    43     6     1   ar
    44    20    15   ar
    45    13     5    1
    46    33    34    1
    47    11    14    1
@<TRIPOS>MOLECULE
*****
 43 47 0 0 0
SMALL
GASTEIGER

@<TRIPOS>ATOM
      1 C          62.3502   88.7370   11.6322 C.ar    1  UNL1       -0.0052
      2 C          63.1109   88.1011   12.7577 C.ar    1  UNL1       -0.0029
      3 C          63.3542   86.6210   12.7566 C.ar    1  UNL1       -0.0006
      4 C          62.8369   85.7767   11.6299 C.ar    1  UNL1       -0.0041
      5 C          62.0761   86.4126   10.5043 C.ar    1  UNL1       -0.0231
      6 C          61.8327   87.8927   10.5054 C.ar    1  UNL1       -0.0085
      7 C          61.0720   88.5286    9.3798 C.3     1  UNL1        0.1211
      8 N          60.5547   87.6843    8.2531 N.am    1  UNL1       -0.2598
      9 C          59.7939   88.3202    7.1275 C.2     1  UNL1        0.3041
     10 O          59.2765   87.4759    6.0008 O.2     1  UNL1       -0.2526
     11 N          59.5505   89.8003    7.1286 N.am    1  UNL1       -0.2919
     12 C          60.7980   86.2042    8.2520 C.3     1  UNL1        0.0999
     13 C          61.5587   85.5683    9.3776 C.3     1  UNL1        0.0476
     14 H          59.8901   90.3544    7.8682 H       1  UNL1        0.1508
     15 C          63.0802   84.2966   11.6288 C.ar    1  UNL1        0.0027
     16 C          63.6823   83.6365   10.4238 C.ar    1  UNL1        0.0002
     17 C          63.9257   82.1563   10.4227 C.ar    1  UNL1        0.0031
     18 C          63.5670   81.3363   11.6265 C.ar    1  UNL1        0.0372
     19 C          62.9649   81.9965   12.8313 C.ar    1  UNL1        0.1468
     20 C          62.7215   83.4766   12.8324 C.ar    1  UNL1        0.0372
     21 O          62.6062   81.1765   14.0351 O.3     1  UNL1       -0.4045
     22 C          61.3071   80.4276   14.0723 C.3     1  UNL1        0.5753
     23 F          60.0079   79.6787   14.1096 F       1  UNL1       -0.1328
     24 F          61.9996   79.2006   13.5576 F       1  UNL1       -0.1328
     25 F          60.6145   81.6545   14.5871 F       1  UNL1       -0.1328
     26 C          58.7898   90.4361    6.0031 C.3     1  UNL1        0.0583
     27 C          60.0713   90.9789    5.4435 C.3     1  UNL1        0.0197
     28 C          57.5083   89.8934    6.5626 C.3     1  UNL1        0.0197
     29 C          58.0290   91.0720    4.8775 C.3     1  UNL1        0.0197
     30 C          62.1068   90.2171   11.6333 C.3     1  UNL1        0.1161
     31 C          64.0322   91.8699   11.0757 C.2     1  UNL1        0.2227
     32 O          63.7982   91.6482    9.6107 O.2     1  UNL1       -0.2751
     33 N          63.1865   91.1543   12.0870 N.am    1  UNL1       -0.3004
     34 H          63.3400   91.2999   13.0485 H       1  UNL1        0.1497
     35 C          66.0829   93.2592   12.5794 C.3     1  UNL1        0.0883
     36 C          66.0109   93.9785   11.2651 C.3     1  UNL1        0.0194
     37 C          65.1119   92.8072   11.5294 C.3     1  UNL1        0.0858
     38 C          69.5839   92.6325   16.4822 C.3     1  UNL1        0.0773
     39 C          68.2944   92.8169   15.7385 C.ar    1  UNL1        0.1809
     40 N          66.9294   92.9182   16.3521 N.ar    1  UNL1       -0.0606
     41 O          65.9348   93.0963   15.2434 O.2     1  UNL1       -0.3374
     42 C          66.6852   93.1050   13.9446 C.ar    1  UNL1        0.2363
     43 N          68.1434   92.9323   14.2505 N.ar    1  UNL1       -0.1949
@<TRIPOS>BOND
     1    38    39    1
     2    39    40   ar
     3    40    41   ar
     4    41    42   ar
     5    35    42    1
     6    35    36    1
     7    36    37    1
     8    37    31    1
     9    31    32    2
    10    31    33   am
    11    33    30    1
    12    30     1    1
    13     1     2   ar
    14     2     3   ar
    15     3     4   ar
    16     4    15    1
    17    15    16   ar
    18    16    17   ar
    19    17    18   ar
    20    18    19   ar
    21    19    21    1
    22    21    22    1
    23    22    23    1
    24    22    24    1
    25    22    25    1
    26    19    20   ar
    27     4     5   ar
    28     5     6   ar
    29     6     7    1
    30     7     8    1
    31     8     9   am
    32     9    10    2
    33     9    11   am
    34    11    26    1
    35    26    27    1
    36    26    28    1
    37    26    29    1
    38     8    12    1
    39    12    13    1
    40    42    43   ar
    41    43    39   ar
    42    37    35    1
    43     6     1   ar
    44    20    15   ar
    45    13     5    1
    46    33    34    1
    47    11    14    1
@<TRIPOS>MOLECULE
*****
 43 47 0 0 0
SMALL
GASTEIGER

@<TRIPOS>ATOM
      1 C          62.7763   88.6405   12.0047 C.ar    1  UNL1       -0.0052
      2 C          63.5318   88.0796   13.1727 C.ar    1  UNL1       -0.0029
      3 C          63.6734   86.5947   13.3312 C.ar    1  UNL1       -0.0006
      4 C          63.0594   85.6708   12.3217 C.ar    1  UNL1       -0.0041
      5 C          62.3038   86.2317   11.1535 C.ar    1  UNL1       -0.0231
      6 C          62.1622   87.7165   10.9950 C.ar    1  UNL1       -0.0085
      7 C          61.4066   88.2775    9.8270 C.3     1  UNL1        0.1211
      8 N          60.7926   87.3535    8.8174 N.am    1  UNL1       -0.2598
      9 C          60.0370   87.9144    7.6492 C.2     1  UNL1        0.3041
     10 O          59.4230   86.9905    6.6397 O.2     1  UNL1       -0.2526
     11 N          59.8955   89.3993    7.4907 N.am    1  UNL1       -0.2919
     12 C          60.9342   85.8687    8.9759 C.3     1  UNL1        0.0999
     13 C          61.6897   85.3077   10.1440 C.3     1  UNL1        0.0476
     14 H          60.2985   90.0057    8.1534 H       1  UNL1        0.1508
     15 C          63.2009   84.1859   12.4802 C.ar    1  UNL1        0.0027
     16 C          63.5140   83.6017   13.8259 C.ar    1  UNL1        0.0002
     17 C          63.6555   82.1169   13.9844 C.ar    1  UNL1        0.0031
     18 C          63.4840   81.2161   12.7972 C.ar    1  UNL1        0.0372
     19 C          63.1710   81.8003   11.4516 C.ar    1  UNL1        0.1468
     20 C          63.0295   83.2852   11.2931 C.ar    1  UNL1        0.0372
     21 O          62.9995   80.8996   10.2644 O.3     1  UNL1       -0.4045
     22 C          62.9081   79.4148   10.4565 C.3     1  UNL1        0.5753
     23 F          62.8167   77.9299   10.6486 F       1  UNL1       -0.1328
     24 F          62.2744   79.6275   11.7993 F       1  UNL1       -0.1328
     25 F          63.5419   79.2020    9.1137 F       1  UNL1       -0.1328
     26 C          59.1399   89.9602    6.3227 C.3     1  UNL1        0.0583
     27 C          60.4250   90.4576    5.7302 C.3     1  UNL1        0.0197
     28 C          57.8548   89.4629    6.9151 C.3     1  UNL1        0.0197
     29 C          58.3842   90.5212    5.1546 C.3     1  UNL1        0.0197
     30 C          62.6347   90.1254   11.8462 C.3     1  UNL1        0.1161
     31 C          64.2887   91.5639   13.2408 C.2     1  UNL1        0.2227
     32 O          63.5193   91.2403   14.4871 O.2     1  UNL1       -0.2751
     33 N          63.8464   91.0064   11.9203 N.am    1  UNL1       -0.3004
     34 H          64.3514   91.2188   11.1024 H       1  UNL1        0.1497
     35 C          66.3114   93.5865   12.7771 C.3     1  UNL1        0.0883
     36 C          66.7881   92.8296   13.9811 C.3     1  UNL1        0.0194
     37 C          65.5004   92.4450   13.3149 C.3     1  UNL1        0.0858
     38 C          67.6699   96.1975    8.3933 C.3     1  UNL1        0.0773
     39 C          67.1288   95.8827    9.7563 C.ar    1  UNL1        0.1809
     40 N          66.4737   96.8558   10.6912 N.ar    1  UNL1       -0.0606
     41 O          66.0877   96.1141   11.9366 O.2     1  UNL1       -0.3374
     42 C          66.5043   94.6825   11.7714 C.ar    1  UNL1        0.2363
     43 N          67.1477   94.5396   10.4240 N.ar    1  UNL1       -0.1949
@<TRIPOS>BOND
     1    38    39    1
     2    39    40   ar
     3    40    41   ar
     4    41    42   ar
     5    35    42    1
     6    35    36    1
     7    36    37    1
     8    37    31    1
     9    31    32    2
    10    31    33   am
    11    33    30    1
    12    30     1    1
    13     1     2   ar
    14     2     3   ar
    15     3     4   ar
    16     4    15    1
    17    15    16   ar
    18    16    17   ar
    19    17    18   ar
    20    18    19   ar
    21    19    21    1
    22    21    22    1
    23    22    23    1
    24    22    24    1
    25    22    25    1
    26    19    20   ar
    27     4     5   ar
    28     5     6   ar
    29     6     7    1
    30     7     8    1
    31     8     9   am
    32     9    10    2
    33     9    11   am
    34    11    26    1
    35    26    27    1
    36    26    28    1
    37    26    29    1
    38     8    12    1
    39    12    13    1
    40    42    43   ar
    41    43    39   ar
    42    37    35    1
    43     6     1   ar
    44    20    15   ar
    45    13     5    1
    46    33    34    1
    47    11    14    1
@<TRIPOS>MOLECULE
*****
 43 47 0 0 0
SMALL
GASTEIGER

@<TRIPOS>ATOM
      1 C          64.6386   90.5712   14.2571 C.ar    1  UNL1       -0.0052
      2 C          65.5522   91.5118   14.9855 C.ar    1  UNL1       -0.0029
      3 C          66.0521   92.7507   14.3033 C.ar    1  UNL1       -0.0006
      4 C          65.6382   93.0490   12.8927 C.ar    1  UNL1       -0.0041
      5 C          64.7245   92.1084   12.1643 C.ar    1  UNL1       -0.0231
      6 C          64.2247   90.8695   12.8465 C.ar    1  UNL1       -0.0085
      7 C          63.3111   89.9290   12.1181 C.3     1  UNL1        0.1211
      8 N          62.8972   90.2273   10.7076 N.am    1  UNL1       -0.2598
      9 C          61.9835   89.2867    9.9791 C.2     1  UNL1        0.3041
     10 O          61.5697   89.5851    8.5686 O.2     1  UNL1       -0.2526
     11 N          61.4837   88.0479   10.6613 N.am    1  UNL1       -0.2919
     12 C          63.3971   91.4662   10.0254 C.3     1  UNL1        0.0999
     13 C          64.3107   92.4067   10.7537 C.3     1  UNL1        0.0476
     14 H          61.7553   87.8521   11.5871 H       1  UNL1        0.1508
     15 C          66.1381   94.2878   12.2106 C.ar    1  UNL1        0.0027
     16 C          66.0329   95.6169   12.8980 C.ar    1  UNL1        0.0002
     17 C          66.5328   96.8558   12.2158 C.ar    1  UNL1        0.0031
     18 C          67.1378   96.7655   10.8462 C.ar    1  UNL1        0.0372
     19 C          67.2429   95.4365   10.1588 C.ar    1  UNL1        0.1468
     20 C          66.7431   94.1977   10.8410 C.ar    1  UNL1        0.0372
     21 O          67.8479   95.3463    8.7891 O.3     1  UNL1       -0.4045
     22 C          68.2568   94.0132    8.2362 C.3     1  UNL1        0.5753
     23 F          68.6658   92.6802    7.6833 F       1  UNL1       -0.1328
     24 F          69.0849   93.7593    9.4609 F       1  UNL1       -0.1328
     25 F          67.4288   94.2672    7.0115 F       1  UNL1       -0.1328
     26 C          60.5700   87.1073    9.9330 C.3     1  UNL1        0.0583
     27 C          61.7093   86.1511    9.7387 C.3     1  UNL1        0.0197
     28 C          59.4308   88.0635   10.1272 C.3     1  UNL1        0.0197
     29 C          59.6563   86.1668    9.2046 C.3     1  UNL1        0.0197
     30 C          64.1387   89.3324   14.9393 C.3     1  UNL1        0.1161
     31 C          64.1855   86.7515   15.2335 C.2     1  UNL1        0.2227
     32 O          63.1730   86.8586   16.3350 O.2     1  UNL1       -0.2751
     33 N          64.6683   87.9883   14.5357 N.am    1  UNL1       -0.3004
     34 H          65.3329   87.9180   13.8127 H       1  UNL1        0.1497
     35 C          64.4757   84.0127   14.3324 C.3     1  UNL1        0.0883
     36 C          65.8720   84.4741   14.6279 C.3     1  UNL1        0.0194
     37 C          64.7151   85.4074   14.8298 C.3     1  UNL1        0.0858
     38 C          60.4579   80.5900   14.1792 C.3     1  UNL1        0.0773
     39 C          61.6844   81.3677   13.8043 C.ar    1  UNL1        0.1809
     40 N          62.4713   81.2159   12.5363 N.ar    1  UNL1       -0.0606
     41 O          63.6127   82.1882   12.5798 O.2     1  UNL1       -0.3374
     42 C          63.5312   82.9410   13.8747 C.ar    1  UNL1        0.2363
     43 N          62.3395   82.4339   14.6314 N.ar    1  UNL1       -0.1949
@<TRIPOS>BOND
     1    38    39    1
     2    39    40   ar
     3    40    41   ar
     4    41    42   ar
     5    35    42    1
     6    35    36    1
     7    36    37    1
     8    37    31    1
     9    31    32    2
    10    31    33   am
    11    33    30    1
    12    30     1    1
    13     1     2   ar
    14     2     3   ar
    15     3     4   ar
    16     4    15    1
    17    15    16   ar
    18    16    17   ar
    19    17    18   ar
    20    18    19   ar
    21    19    21    1
    22    21    22    1
    23    22    23    1
    24    22    24    1
    25    22    25    1
    26    19    20   ar
    27     4     5   ar
    28     5     6   ar
    29     6     7    1
    30     7     8    1
    31     8     9   am
    32     9    10    2
    33     9    11   am
    34    11    26    1
    35    26    27    1
    36    26    28    1
    37    26    29    1
    38     8    12    1
    39    12    13    1
    40    42    43   ar
    41    43    39   ar
    42    37    35    1
    43     6     1   ar
    44    20    15   ar
    45    13     5    1
    46    33    34    1
    47    11    14    1
@<TRIPOS>MOLECULE
*****
 43 47 0 0 0
SMALL
GASTEIGER

@<TRIPOS>ATOM
      1 C          62.4197   89.1562   10.5394 C.ar    1  UNL1       -0.0052
      2 C          62.5519   90.5112    9.9097 C.ar    1  UNL1       -0.0029
      3 C          63.4183   91.5547   10.5504 C.ar    1  UNL1       -0.0006
      4 C          64.1524   91.2433   11.8208 C.ar    1  UNL1       -0.0041
      5 C          64.0202   89.8883   12.4506 C.ar    1  UNL1       -0.0231
      6 C          63.1539   88.8448   11.8099 C.ar    1  UNL1       -0.0085
      7 C          63.0216   87.4898   12.4397 C.3     1  UNL1        0.1211
      8 N          63.7558   87.1784   13.7101 N.am    1  UNL1       -0.2598
      9 C          63.6236   85.8234   14.3399 C.2     1  UNL1        0.3041
     10 O          64.3577   85.5120   15.6103 O.2     1  UNL1       -0.2526
     11 N          62.7572   84.7799   13.6992 N.am    1  UNL1       -0.2919
     12 C          64.6221   88.2220   14.3508 C.3     1  UNL1        0.0999
     13 C          64.7543   89.5769   13.7210 C.3     1  UNL1        0.0476
     14 H          62.2754   84.9843   12.8654 H       1  UNL1        0.1508
     15 C          65.0188   92.2868   12.4615 C.ar    1  UNL1        0.0027
     16 C          65.4333   93.4994   11.6818 C.ar    1  UNL1        0.0002
     17 C          66.2997   94.5429   12.3224 C.ar    1  UNL1        0.0031
     18 C          66.7515   94.3739   13.7428 C.ar    1  UNL1        0.0372
     19 C          66.3369   93.1613   14.5224 C.ar    1  UNL1        0.1468
     20 C          65.4705   92.1178   13.8818 C.ar    1  UNL1        0.0372
     21 O          66.7887   92.9923   15.9428 O.3     1  UNL1       -0.4045
     22 C          68.2259   92.6830   16.2409 C.3     1  UNL1        0.5753
     23 F          69.6630   92.3736   16.5390 F       1  UNL1       -0.1328
     24 F          67.9854   91.2412   15.9039 F       1  UNL1       -0.1328
     25 F          68.4663   94.1247   16.5779 F       1  UNL1       -0.1328
     26 C          62.6250   83.4250   14.3290 C.3     1  UNL1        0.0583
     27 C          61.8133   84.0209   15.4407 C.3     1  UNL1        0.0197
     28 C          63.4367   82.8290   13.2172 C.3     1  UNL1        0.0197
     29 C          62.4928   82.0699   14.9587 C.3     1  UNL1        0.0197
     30 C          61.5534   88.1127    9.8987 C.3     1  UNL1        0.1161
     31 C          59.9187   89.4857    8.4179 C.2     1  UNL1        0.2227
     32 O          59.5500   90.3263    9.6042 O.2     1  UNL1       -0.2751
     33 N          60.9204   88.3789    8.5652 N.am    1  UNL1       -0.3004
     34 H          61.1623   87.8271    7.7865 H       1  UNL1        0.1497
     35 C          59.3244   90.4073    5.7356 C.3     1  UNL1        0.0883
     36 C          58.1507   89.5574    6.1230 C.3     1  UNL1        0.0194
     37 C          59.2857   89.7518    7.0843 C.3     1  UNL1        0.0858
     38 C          60.2541   94.0529    2.0308 C.3     1  UNL1        0.0773
     39 C          60.4517   92.9521    3.0304 C.ar    1  UNL1        0.1809
     40 N          61.7514   92.2756    3.3514 N.ar    1  UNL1       -0.0606
     41 O          61.4874   91.2399    4.4039 O.2     1  UNL1       -0.3374
     42 C          60.0244   91.2764    4.7333 C.ar    1  UNL1        0.2363
     43 N          59.3844   92.3346    3.8845 N.ar    1  UNL1       -0.1949
@<TRIPOS>BOND
     1    38    39    1
     2    39    40   ar
     3    40    41   ar
     4    41    42   ar
     5    35    42    1
     6    35    36    1
     7    36    37    1
     8    37    31    1
     9    31    32    2
    10    31    33   am
    11    33    30    1
    12    30     1    1
    13     1     2   ar
    14     2     3   ar
    15     3     4   ar
    16     4    15    1
    17    15    16   ar
    18    16    17   ar
    19    17    18   ar
    20    18    19   ar
    21    19    21    1
    22    21    22    1
    23    22    23    1
    24    22    24    1
    25    22    25    1
    26    19    20   ar
    27     4     5   ar
    28     5     6   ar
    29     6     7    1
    30     7     8    1
    31     8     9   am
    32     9    10    2
    33     9    11   am
    34    11    26    1
    35    26    27    1
    36    26    28    1
    37    26    29    1
    38     8    12    1
    39    12    13    1
    40    42    43   ar
    41    43    39   ar
    42    37    35    1
    43     6     1   ar
    44    20    15   ar
    45    13     5    1
    46    33    34    1
    47    11    14    1
@<TRIPOS>MOLECULE
*****
 43 47 0 0 0
SMALL
GASTEIGER

@<TRIPOS>ATOM
      1 C          62.6831   88.5143   12.0603 C.ar    1  UNL1       -0.0052
      2 C          63.4082   87.9308   13.2366 C.ar    1  UNL1       -0.0029
      3 C          63.5131   86.4424   13.3900 C.ar    1  UNL1       -0.0006
      4 C          62.8929   85.5374   12.3672 C.ar    1  UNL1       -0.0041
      5 C          62.1677   86.1209   11.1908 C.ar    1  UNL1       -0.0231
      6 C          62.0629   87.6093   11.0373 C.ar    1  UNL1       -0.0085
      7 C          61.3378   88.1928    9.8610 C.3     1  UNL1        0.1211
      8 N          60.7176   87.2878    8.8381 N.am    1  UNL1       -0.2598
      9 C          59.9925   87.8713    7.6617 C.2     1  UNL1        0.3041
     10 O          59.3723   86.9663    6.6388 O.2     1  UNL1       -0.2526
     11 N          59.8876   89.3597    7.5083 N.am    1  UNL1       -0.2919
     12 C          60.8225   85.7994    8.9916 C.3     1  UNL1        0.0999
     13 C          61.5475   85.2159   10.1679 C.3     1  UNL1        0.0476
     14 H          60.2947   89.9537    8.1796 H       1  UNL1        0.1508
     15 C          62.9977   84.0490   12.5206 C.ar    1  UNL1        0.0027
     16 C          63.0271   83.4363   13.8895 C.ar    1  UNL1        0.0002
     17 C          63.1320   81.9479   14.0430 C.ar    1  UNL1        0.0031
     18 C          63.2074   81.0721   12.8275 C.ar    1  UNL1        0.0372
     19 C          63.1780   81.6847   11.4587 C.ar    1  UNL1        0.1468
     20 C          63.0732   83.1731   11.3052 C.ar    1  UNL1        0.0372
     21 O          63.2535   80.8089   10.2432 O.3     1  UNL1       -0.4045
     22 C          62.8798   79.3593   10.3389 C.3     1  UNL1        0.5753
     23 F          62.5061   77.9098   10.4346 F       1  UNL1       -0.1328
     24 F          62.4805   79.5569   11.7712 F       1  UNL1       -0.1328
     25 F          63.2791   79.1618    8.9066 F       1  UNL1       -0.1328
     26 C          59.1626   89.9432    6.3319 C.3     1  UNL1        0.0583
     27 C          60.4605   90.4650    5.7907 C.3     1  UNL1        0.0197
     28 C          57.8646   89.4213    6.8731 C.3     1  UNL1        0.0197
     29 C          58.4374   90.5267    5.1556 C.3     1  UNL1        0.0197
     30 C          62.5783   90.0027   11.9068 C.3     1  UNL1        0.1161
     31 C          64.1726   91.7495   10.8312 C.2     1  UNL1        0.2227
     32 O          63.2994   91.7960    9.6124 O.2     1  UNL1       -0.2751
     33 N          63.8120   90.8528   11.9784 N.am    1  UNL1       -0.3004
     34 H          64.3851   90.8223   12.7783 H       1  UNL1        0.1497
     35 C          66.6977   92.9610   11.5750 C.3     1  UNL1        0.0883
     36 C          66.2521   93.7106   10.3546 C.3     1  UNL1        0.0194
     37 C          65.4064   92.5996   10.9028 C.3     1  UNL1        0.0858
     38 C          69.0978   93.0203   16.2778 C.3     1  UNL1        0.0773
     39 C          68.8037   92.7642   14.8295 C.ar    1  UNL1        0.1809
     40 N          69.6836   92.0199   13.8694 N.ar    1  UNL1       -0.0606
     41 O          69.0018   92.0030   12.5333 O.2     1  UNL1       -0.3374
     42 C          67.7005   92.7369   12.6678 C.ar    1  UNL1        0.2363
     43 N          67.5781   93.2073   14.0869 N.ar    1  UNL1       -0.1949
@<TRIPOS>BOND
     1    38    39    1
     2    39    40   ar
     3    40    41   ar
     4    41    42   ar
     5    35    42    1
     6    35    36    1
     7    36    37    1
     8    37    31    1
     9    31    32    2
    10    31    33   am
    11    33    30    1
    12    30     1    1
    13     1     2   ar
    14     2     3   ar
    15     3     4   ar
    16     4    15    1
    17    15    16   ar
    18    16    17   ar
    19    17    18   ar
    20    18    19   ar
    21    19    21    1
    22    21    22    1
    23    22    23    1
    24    22    24    1
    25    22    25    1
    26    19    20   ar
    27     4     5   ar
    28     5     6   ar
    29     6     7    1
    30     7     8    1
    31     8     9   am
    32     9    10    2
    33     9    11   am
    34    11    26    1
    35    26    27    1
    36    26    28    1
    37    26    29    1
    38     8    12    1
    39    12    13    1
    40    42    43   ar
    41    43    39   ar
    42    37    35    1
    43     6     1   ar
    44    20    15   ar
    45    13     5    1
    46    33    34    1
    47    11    14    1
