@<TRIPOS>MOLECULE
*****
 35 39 0 0 0
SMALL
GASTEIGER

@<TRIPOS>ATOM
      1 C          60.3576   88.4180    8.6472 C.3     1  UNL1        0.0744
      2 C          59.7824   87.4121    7.6948 C.3     1  UNL1        0.0113
      3 C          59.1897   88.5229    6.8795 C.3     1  UNL1        0.0015
      4 C          59.7649   89.5288    7.8319 C.3     1  UNL1        0.0113
      5 C          60.9504   87.3072    9.4626 C.ar    1  UNL1       -0.0159
      6 C          60.7017   87.2466   10.9406 C.ar    1  UNL1       -0.0039
      7 C          61.2944   86.1358   11.7559 C.ar    1  UNL1       -0.0002
      8 C          62.1359   85.0856   11.0932 C.ar    1  UNL1        0.0030
      9 C          62.3846   85.1463    9.6153 C.ar    1  UNL1       -0.0002
     10 C          61.7918   86.2570    8.8000 C.ar    1  UNL1       -0.0039
     11 C          62.7286   83.9748   11.9086 C.ar    1  UNL1        0.0384
     12 C          63.2883   82.7610   11.2279 C.ar    1  UNL1        0.1033
     13 N          63.8810   81.6502   12.0433 N.ar    1  UNL1       -0.2125
     14 C          63.9141   81.7533   13.5394 C.ar    1  UNL1        0.2137
     15 N          64.5068   80.6425   14.3548 N.pl3   1  UNL1       -0.3274
     16 N          63.3544   82.9672   14.2201 N.ar    1  UNL1       -0.2125
     17 C          62.7617   84.0779   13.4047 C.ar    1  UNL1        0.1033
     18 H          64.8741   79.8458   13.9081 H       1  UNL1        0.1452
     19 H          64.5285   80.7102   15.3367 H       1  UNL1        0.1452
     20 C          62.5064   90.8231   10.8068 C.ar    1  UNL1        0.2628
     21 N          62.3846   89.7743    9.7414 N.ar    1  UNL1       -0.1907
     22 C          60.9329   89.4240    9.5996 C.ar    1  UNL1        0.1837
     23 N          60.1576   90.2564   10.5774 N.ar    1  UNL1       -0.0599
     24 O          61.1300   91.1211   11.3235 O.2     1  UNL1       -0.3326
     25 N          65.8635   92.7077   11.3000 N.ar    1  UNL1       -0.2468
     26 C          64.7266   92.2627   10.4286 C.ar    1  UNL1        0.1015
     27 C          63.7808   91.4618   11.2736 C.ar    1  UNL1        0.0956
     28 C          64.3331   91.4118   12.6673 C.ar    1  UNL1        0.1264
     29 N          65.6203   92.1819   12.6837 N.ar    1  UNL1       -0.1674
     30 C          67.0375   93.5336   10.8644 C.3     1  UNL1        0.1541
     31 C          68.2450   91.9462   10.1417 C.3     1  UNL1        0.0314
     32 C          67.7270   93.2314    9.5671 C.3     1  UNL1        0.1110
     33 C          67.2091   94.5164    8.9924 C.3     1  UNL1        0.0314
     34 O          68.4165   92.9292    8.2696 O.3     1  UNL1       -0.3848
     35 H          68.8810   92.0805    8.3403 H       1  UNL1        0.2103
@<TRIPOS>BOND
     1    31    32    1
     2    32    33    1
     3    32    34    1
     4    32    30    1
     5    30    25    1
     6    25    26   ar
     7    26    27   ar
     8    27    20    1
     9    20    21   ar
    10    21    22   ar
    11    22     1    1
    12     1     5    1
    13     5     6   ar
    14     6     7   ar
    15     7     8   ar
    16     8    11    1
    17    11    12   ar
    18    12    13   ar
    19    13    14   ar
    20    14    15    1
    21    14    16   ar
    22    16    17   ar
    23     8     9   ar
    24     9    10   ar
    25     1     2    1
    26     2     3    1
    27     3     4    1
    28    22    23   ar
    29    23    24   ar
    30    27    28   ar
    31    28    29   ar
    32    29    25   ar
    33    24    20   ar
    34     4     1    1
    35    10     5   ar
    36    17    11   ar
    37    34    35    1
    38    15    18    1
    39    15    19    1
@<TRIPOS>MOLECULE
*****
 35 39 0 0 0
SMALL
GASTEIGER

@<TRIPOS>ATOM
      1 C          60.4169   88.4914    8.6833 C.3     1  UNL1        0.0744
      2 C          59.8681   87.5084    7.6922 C.3     1  UNL1        0.0113
      3 C          59.2953   88.6382    6.8888 C.3     1  UNL1        0.0015
      4 C          59.8441   89.6212    7.8800 C.3     1  UNL1        0.0113
      5 C          60.9898   87.3616    9.4867 C.ar    1  UNL1       -0.0159
      6 C          61.8547   86.3319    8.8223 C.ar    1  UNL1       -0.0039
      7 C          62.4275   85.2021    9.6257 C.ar    1  UNL1       -0.0002
      8 C          62.1354   85.1021   11.0936 C.ar    1  UNL1        0.0030
      9 C          61.2705   86.1318   11.7580 C.ar    1  UNL1       -0.0002
     10 C          60.6977   87.2615   10.9546 C.ar    1  UNL1       -0.0039
     11 C          62.7083   83.9722   11.8970 C.ar    1  UNL1        0.0384
     12 C          63.2457   82.7557   11.2033 C.ar    1  UNL1        0.1033
     13 N          63.8186   81.6259   12.0067 N.ar    1  UNL1       -0.2125
     14 C          63.8540   81.7127   13.5038 C.ar    1  UNL1        0.2137
     15 N          64.4268   80.5829   14.3072 N.pl3   1  UNL1       -0.3274
     16 N          63.3165   82.9293   14.1975 N.ar    1  UNL1       -0.2125
     17 C          62.7437   84.0590   13.3940 C.ar    1  UNL1        0.1033
     18 H          64.7795   79.7844   13.8519 H       1  UNL1        0.1452
     19 H          64.4500   80.6399   15.2898 H       1  UNL1        0.1452
     20 C          62.4976   90.7034   11.1007 C.ar    1  UNL1        0.2628
     21 N          62.4003   89.5932   10.0967 N.ar    1  UNL1       -0.1907
     22 C          60.9658   89.4744    9.6745 C.ar    1  UNL1        0.1837
     23 N          60.1765   90.5113   10.4175 N.ar    1  UNL1       -0.0599
     24 O          61.1232   91.2709   11.2989 O.2     1  UNL1       -0.3326
     25 N          65.5456   91.3953   13.4019 N.ar    1  UNL1       -0.2468
     26 C          64.2747   90.6594   13.0969 C.ar    1  UNL1        0.1015
     27 C          63.7494   91.1651   11.7860 C.ar    1  UNL1        0.0956
     28 C          64.6956   92.2136   11.2808 C.ar    1  UNL1        0.1264
     29 N          65.8059   92.3559   12.2796 N.ar    1  UNL1       -0.1674
     30 C          66.4055   91.2043   14.6160 C.3     1  UNL1        0.1541
     31 C          68.1411   92.3896   14.9039 C.3     1  UNL1        0.0314
     32 C          66.7559   92.3798   15.4794 C.3     1  UNL1        0.1110
     33 C          65.3708   92.3700   16.0549 C.3     1  UNL1        0.0314
     34 O          67.1063   93.5553   16.3428 O.3     1  UNL1       -0.3848
     35 H          68.0263   93.8147   16.1781 H       1  UNL1        0.2103
@<TRIPOS>BOND
     1    31    32    1
     2    32    33    1
     3    32    34    1
     4    32    30    1
     5    30    25    1
     6    25    26   ar
     7    26    27   ar
     8    27    20    1
     9    20    21   ar
    10    21    22   ar
    11    22     1    1
    12     1     5    1
    13     5     6   ar
    14     6     7   ar
    15     7     8   ar
    16     8    11    1
    17    11    12   ar
    18    12    13   ar
    19    13    14   ar
    20    14    15    1
    21    14    16   ar
    22    16    17   ar
    23     8     9   ar
    24     9    10   ar
    25     1     2    1
    26     2     3    1
    27     3     4    1
    28    22    23   ar
    29    23    24   ar
    30    27    28   ar
    31    28    29   ar
    32    29    25   ar
    33    24    20   ar
    34     4     1    1
    35    10     5   ar
    36    17    11   ar
    37    34    35    1
    38    15    18    1
    39    15    19    1
@<TRIPOS>MOLECULE
*****
 35 39 0 0 0
SMALL
GASTEIGER

@<TRIPOS>ATOM
      1 C          63.6540   83.9954   13.0201 C.3     1  UNL1        0.0744
      2 C          63.6897   82.8497   12.0527 C.3     1  UNL1        0.0113
      3 C          64.4284   82.0210   13.0614 C.3     1  UNL1        0.0015
      4 C          64.3927   83.1667   14.0288 C.3     1  UNL1        0.0113
      5 C          62.9153   84.8242   12.0114 C.ar    1  UNL1       -0.0159
      6 C          61.8335   85.7621   12.4589 C.ar    1  UNL1       -0.0039
      7 C          61.0949   86.5908   11.4502 C.ar    1  UNL1       -0.0002
      8 C          61.4379   86.4817    9.9940 C.ar    1  UNL1        0.0030
      9 C          62.5197   85.5438    9.5465 C.ar    1  UNL1       -0.0002
     10 C          63.2583   84.7151   10.5552 C.ar    1  UNL1       -0.0039
     11 C          60.6992   87.3105    8.9853 C.ar    1  UNL1        0.0384
     12 C          60.7651   88.8075    9.0517 C.ar    1  UNL1        0.1033
     13 N          60.0264   89.6363    8.0430 N.ar    1  UNL1       -0.2125
     14 C          59.2217   88.9680    6.9679 C.ar    1  UNL1        0.2137
     15 N          58.4830   89.7967    5.9592 N.pl3   1  UNL1       -0.3274
     16 N          59.1558   87.4708    6.9015 N.ar    1  UNL1       -0.2125
     17 C          59.8945   86.6421    7.9102 C.ar    1  UNL1        0.1033
     18 H          58.5263   90.7793    6.0028 H       1  UNL1        0.1452
     19 H          57.9549   89.3580    5.2536 H       1  UNL1        0.1452
     20 C          63.7937   87.3691   14.9345 C.ar    1  UNL1        0.2628
     21 N          63.9700   86.5665   13.6796 N.ar    1  UNL1       -0.1907
     22 C          63.6183   85.1412   13.9876 C.ar    1  UNL1        0.1837
     23 N          63.2247   85.0628   15.4329 N.ar    1  UNL1       -0.0599
     24 O          63.3331   86.4398   16.0182 O.2     1  UNL1       -0.3326
     25 N          64.9222   91.0786   14.7593 N.ar    1  UNL1       -0.2468
     26 C          65.0100   89.6587   14.2839 C.ar    1  UNL1        0.1015
     27 C          64.0356   88.8422   15.0802 C.ar    1  UNL1        0.0956
     28 C          63.3457   89.7575   16.0477 C.ar    1  UNL1        0.1264
     29 N          63.8936   91.1398   15.8494 N.ar    1  UNL1       -0.1674
     30 C          65.7224   92.2346   14.2365 C.3     1  UNL1        0.1541
     31 C          66.8470   92.2779   12.4382 C.3     1  UNL1        0.0314
     32 C          67.1687   92.0477   13.8852 C.3     1  UNL1        0.1110
     33 C          67.4904   91.8175   15.3321 C.3     1  UNL1        0.0314
     34 O          68.6150   91.8608   13.5340 O.3     1  UNL1       -0.3848
     35 H          68.7307   91.9609   12.5761 H       1  UNL1        0.2103
@<TRIPOS>BOND
     1    31    32    1
     2    32    33    1
     3    32    34    1
     4    32    30    1
     5    30    25    1
     6    25    26   ar
     7    26    27   ar
     8    27    20    1
     9    20    21   ar
    10    21    22   ar
    11    22     1    1
    12     1     5    1
    13     5     6   ar
    14     6     7   ar
    15     7     8   ar
    16     8    11    1
    17    11    12   ar
    18    12    13   ar
    19    13    14   ar
    20    14    15    1
    21    14    16   ar
    22    16    17   ar
    23     8     9   ar
    24     9    10   ar
    25     1     2    1
    26     2     3    1
    27     3     4    1
    28    22    23   ar
    29    23    24   ar
    30    27    28   ar
    31    28    29   ar
    32    29    25   ar
    33    24    20   ar
    34     4     1    1
    35    10     5   ar
    36    17    11   ar
    37    34    35    1
    38    15    18    1
    39    15    19    1
@<TRIPOS>MOLECULE
*****
 35 39 0 0 0
SMALL
GASTEIGER

@<TRIPOS>ATOM
      1 C          60.7957   87.9196    8.9135 C.3     1  UNL1        0.0744
      2 C          59.8360   89.0693    8.8297 C.3     1  UNL1        0.0113
      3 C          59.0061   88.3045    7.8417 C.3     1  UNL1        0.0015
      4 C          59.9658   87.1548    7.9255 C.3     1  UNL1        0.0113
      5 C          61.6257   88.6844    9.9016 C.ar    1  UNL1       -0.0159
      6 C          61.9736   90.1194    9.6373 C.ar    1  UNL1       -0.0039
      7 C          62.8036   90.8841   10.6253 C.ar    1  UNL1       -0.0002
      8 C          63.2857   90.2139   11.8777 C.ar    1  UNL1        0.0030
      9 C          62.9378   88.7790   12.1420 C.ar    1  UNL1       -0.0002
     10 C          62.1079   88.0142   11.1539 C.ar    1  UNL1       -0.0039
     11 C          64.1157   90.9787   12.8657 C.ar    1  UNL1        0.0384
     12 C          65.0547   92.0467   12.3888 C.ar    1  UNL1        0.1033
     13 N          65.8848   92.8116   13.3769 N.ar    1  UNL1       -0.2125
     14 C          65.7757   92.5083   14.8419 C.ar    1  UNL1        0.2137
     15 N          66.6057   93.2730   15.8299 N.pl3   1  UNL1       -0.3274
     16 N          64.8366   91.4401   15.3187 N.ar    1  UNL1       -0.2125
     17 C          64.0067   90.6754   14.3307 C.ar    1  UNL1        0.1033
     18 H          67.2220   93.9740   15.5169 H       1  UNL1        0.1452
     19 H          66.5341   93.0739   16.7914 H       1  UNL1        0.1452
     20 C          62.9839   84.8436    9.8165 C.ar    1  UNL1        0.2628
     21 N          61.9177   85.8400   10.1632 N.ar    1  UNL1       -0.1907
     22 C          61.7554   86.7699    8.9973 C.ar    1  UNL1        0.1837
     23 N          62.7214   86.3481    7.9301 N.ar    1  UNL1       -0.0599
     24 O          63.4807   85.1575    8.4363 O.2     1  UNL1       -0.3326
     25 N          63.6485   82.1430   12.5238 N.ar    1  UNL1       -0.2468
     26 C          62.8384   83.2831   11.9817 C.ar    1  UNL1        0.1015
     27 C          63.4684   83.7289   10.6955 C.ar    1  UNL1        0.0956
     28 C          64.6678   82.8644   10.4426 C.ar    1  UNL1        0.1264
     29 N          64.7791   81.8842   11.5727 N.ar    1  UNL1       -0.1674
     30 C          63.3758   81.3932   13.7941 C.3     1  UNL1        0.1541
     31 C          61.8766   82.3814   14.9237 C.3     1  UNL1        0.0314
     32 C          61.9641   81.0762   14.1897 C.3     1  UNL1        0.1110
     33 C          62.0516   79.7710   13.4557 C.3     1  UNL1        0.0314
     34 O          60.5523   80.7591   14.5852 O.3     1  UNL1       -0.3848
     35 H          60.1947   81.4865   15.1180 H       1  UNL1        0.2103
@<TRIPOS>BOND
     1    31    32    1
     2    32    33    1
     3    32    34    1
     4    32    30    1
     5    30    25    1
     6    25    26   ar
     7    26    27   ar
     8    27    20    1
     9    20    21   ar
    10    21    22   ar
    11    22     1    1
    12     1     5    1
    13     5     6   ar
    14     6     7   ar
    15     7     8   ar
    16     8    11    1
    17    11    12   ar
    18    12    13   ar
    19    13    14   ar
    20    14    15    1
    21    14    16   ar
    22    16    17   ar
    23     8     9   ar
    24     9    10   ar
    25     1     2    1
    26     2     3    1
    27     3     4    1
    28    22    23   ar
    29    23    24   ar
    30    27    28   ar
    31    28    29   ar
    32    29    25   ar
    33    24    20   ar
    34     4     1    1
    35    10     5   ar
    36    17    11   ar
    37    34    35    1
    38    15    18    1
    39    15    19    1
@<TRIPOS>MOLECULE
*****
 35 39 0 0 0
SMALL
GASTEIGER

@<TRIPOS>ATOM
      1 C          60.4685   88.3742    8.6851 C.3     1  UNL1        0.0744
      2 C          59.7392   89.6668    8.4681 C.3     1  UNL1        0.0113
      3 C          58.9544   89.0372    7.3556 C.3     1  UNL1        0.0015
      4 C          59.6838   87.7446    7.5726 C.3     1  UNL1        0.0113
      5 C          61.2533   89.0037    9.7977 C.ar    1  UNL1       -0.0159
      6 C          62.5854   89.6322    9.5137 C.ar    1  UNL1       -0.0039
      7 C          63.3701   90.2617   10.6263 C.ar    1  UNL1       -0.0002
      8 C          62.8227   90.2628   12.0229 C.ar    1  UNL1        0.0030
      9 C          61.4907   89.6343   12.3069 C.ar    1  UNL1       -0.0002
     10 C          60.7060   89.0048   11.1943 C.ar    1  UNL1       -0.0039
     11 C          63.6075   90.8923   13.1355 C.ar    1  UNL1        0.0384
     12 C          63.2751   90.5716   14.5626 C.ar    1  UNL1        0.1033
     13 N          64.0599   91.2012   15.6752 N.ar    1  UNL1       -0.2125
     14 C          65.1771   92.1515   15.3607 C.ar    1  UNL1        0.2137
     15 N          65.9618   92.7810   16.4732 N.pl3   1  UNL1       -0.3274
     16 N          65.5094   92.4722   13.9335 N.ar    1  UNL1       -0.2125
     17 C          64.7246   91.8426   12.8210 C.ar    1  UNL1        0.1033
     18 H          65.7437   92.5705   17.4098 H       1  UNL1        0.1452
     19 H          66.6950   93.4047   16.2667 H       1  UNL1        0.1452
     20 C          62.4018   85.2603    9.9626 C.ar    1  UNL1        0.2628
     21 N          61.7585   86.5934   10.2051 N.ar    1  UNL1       -0.1907
     22 C          61.1979   87.0816    8.9021 C.ar    1  UNL1        0.1837
     23 N          61.4948   86.0500    7.8544 N.ar    1  UNL1       -0.0599
     24 O          62.2389   84.9244    8.5097 O.2     1  UNL1       -0.3326
     25 N          63.9025   83.5679   13.1167 N.ar    1  UNL1       -0.2468
     26 C          63.1016   84.6597   12.4715 C.ar    1  UNL1        0.1015
     27 C          63.0876   84.4120   10.9921 C.ar    1  UNL1        0.0956
     28 C          63.8799   83.1671   10.7231 C.ar    1  UNL1        0.1264
     29 N          64.3836   82.6454   12.0362 N.ar    1  UNL1       -0.1674
     30 C          64.1746   83.4238   14.5848 C.3     1  UNL1        0.1541
     31 C          62.6566   83.9997   15.9502 C.3     1  UNL1        0.0314
     32 C          63.9622   84.5892   15.5049 C.3     1  UNL1        0.1110
     33 C          65.2676   85.1787   15.0597 C.3     1  UNL1        0.0314
     34 O          63.7497   85.7547   16.4251 O.3     1  UNL1       -0.3848
     35 H          62.9080   85.6465   16.8949 H       1  UNL1        0.2103
@<TRIPOS>BOND
     1    31    32    1
     2    32    33    1
     3    32    34    1
     4    32    30    1
     5    30    25    1
     6    25    26   ar
     7    26    27   ar
     8    27    20    1
     9    20    21   ar
    10    21    22   ar
    11    22     1    1
    12     1     5    1
    13     5     6   ar
    14     6     7   ar
    15     7     8   ar
    16     8    11    1
    17    11    12   ar
    18    12    13   ar
    19    13    14   ar
    20    14    15    1
    21    14    16   ar
    22    16    17   ar
    23     8     9   ar
    24     9    10   ar
    25     1     2    1
    26     2     3    1
    27     3     4    1
    28    22    23   ar
    29    23    24   ar
    30    27    28   ar
    31    28    29   ar
    32    29    25   ar
    33    24    20   ar
    34     4     1    1
    35    10     5   ar
    36    17    11   ar
    37    34    35    1
    38    15    18    1
    39    15    19    1
@<TRIPOS>MOLECULE
*****
 35 39 0 0 0
SMALL
GASTEIGER

@<TRIPOS>ATOM
      1 C          61.0304   88.4152    9.2606 C.3     1  UNL1        0.0744
      2 C          60.2771   89.6725    8.9418 C.3     1  UNL1        0.0113
      3 C          59.3801   88.9012    8.0196 C.3     1  UNL1        0.0015
      4 C          60.1335   87.6440    8.3384 C.3     1  UNL1        0.0113
      5 C          61.9274   89.1865   10.1829 C.ar    1  UNL1       -0.0159
      6 C          62.1570   88.7027   11.5840 C.ar    1  UNL1       -0.0039
      7 C          63.0540   89.4739   12.5063 C.ar    1  UNL1       -0.0002
      8 C          63.7214   90.7290   12.0274 C.ar    1  UNL1        0.0030
      9 C          63.4919   91.2128   10.6262 C.ar    1  UNL1       -0.0002
     10 C          62.5949   90.4416    9.7040 C.ar    1  UNL1       -0.0039
     11 C          64.6184   91.5003   12.9497 C.ar    1  UNL1        0.0384
     12 C          65.5373   92.5497   12.3982 C.ar    1  UNL1        0.1033
     13 N          66.4344   93.3210   13.3205 N.ar    1  UNL1       -0.2125
     14 C          66.4124   93.0427   14.7943 C.ar    1  UNL1        0.2137
     15 N          67.3093   93.8139   15.7166 N.pl3   1  UNL1       -0.3274
     16 N          65.4934   91.9932   15.3458 N.ar    1  UNL1       -0.2125
     17 C          64.5965   91.2220   14.4235 C.ar    1  UNL1        0.1033
     18 H          67.9125   94.5027   15.3546 H       1  UNL1        0.1452
     19 H          67.2949   93.6313   16.6839 H       1  UNL1        0.1452
     20 C          62.7393   85.2833   10.7893 C.ar    1  UNL1        0.2628
     21 N          61.8968   86.5163   10.9306 N.ar    1  UNL1       -0.1907
     22 C          61.7838   87.1579    9.5794 C.ar    1  UNL1        0.1837
     23 N          62.5564   86.3214    8.6030 N.ar    1  UNL1       -0.0599
     24 O          63.1469   85.1628    9.3507 O.2     1  UNL1       -0.3326
     25 N          63.3416   82.3204   13.2229 N.ar    1  UNL1       -0.2468
     26 C          62.7819   82.8741   11.9462 C.ar    1  UNL1        0.1015
     27 C          63.1091   84.3370   11.8927 C.ar    1  UNL1        0.0956
     28 C          63.8710   84.6874   13.1363 C.ar    1  UNL1        0.1264
     29 N          64.0148   83.4410   13.9585 N.ar    1  UNL1       -0.1674
     30 C          63.2452   80.8960   13.6834 C.3     1  UNL1        0.1541
     31 C          61.3467   81.4008   14.4840 C.3     1  UNL1        0.0314
     32 C          61.9086   80.2186   13.7513 C.3     1  UNL1        0.1110
     33 C          62.4705   79.0364   13.0188 C.3     1  UNL1        0.0314
     34 O          60.5720   79.5411   13.8193 O.3     1  UNL1       -0.3848
     35 H          59.9413   80.1159   14.2806 H       1  UNL1        0.2103
@<TRIPOS>BOND
     1    31    32    1
     2    32    33    1
     3    32    34    1
     4    32    30    1
     5    30    25    1
     6    25    26   ar
     7    26    27   ar
     8    27    20    1
     9    20    21   ar
    10    21    22   ar
    11    22     1    1
    12     1     5    1
    13     5     6   ar
    14     6     7   ar
    15     7     8   ar
    16     8    11    1
    17    11    12   ar
    18    12    13   ar
    19    13    14   ar
    20    14    15    1
    21    14    16   ar
    22    16    17   ar
    23     8     9   ar
    24     9    10   ar
    25     1     2    1
    26     2     3    1
    27     3     4    1
    28    22    23   ar
    29    23    24   ar
    30    27    28   ar
    31    28    29   ar
    32    29    25   ar
    33    24    20   ar
    34     4     1    1
    35    10     5   ar
    36    17    11   ar
    37    34    35    1
    38    15    18    1
    39    15    19    1
@<TRIPOS>MOLECULE
*****
 35 39 0 0 0
SMALL
GASTEIGER

@<TRIPOS>ATOM
      1 C          60.6032   89.3172   11.5151 C.3     1  UNL1        0.0744
      2 C          59.8135   90.4126   12.1681 C.3     1  UNL1        0.0113
      3 C          58.5476   89.8325   11.6104 C.3     1  UNL1        0.0015
      4 C          59.3373   88.7371   10.9574 C.3     1  UNL1        0.0113
      5 C          61.8691   89.8973   12.0728 C.ar    1  UNL1       -0.0159
      6 C          62.2682   89.6044   13.4887 C.ar    1  UNL1       -0.0039
      7 C          63.5341   90.1845   14.0463 C.ar    1  UNL1       -0.0002
      8 C          64.4009   91.0575   13.1880 C.ar    1  UNL1        0.0030
      9 C          64.0017   91.3504   11.7721 C.ar    1  UNL1       -0.0002
     10 C          62.7358   90.7703   11.2145 C.ar    1  UNL1       -0.0039
     11 C          65.6668   91.6376   13.7457 C.ar    1  UNL1        0.0384
     12 C          66.8444   91.8716   12.8465 C.ar    1  UNL1        0.1033
     13 N          68.1103   92.4517   13.4042 N.ar    1  UNL1       -0.2125
     14 C          68.1986   92.7978   14.8611 C.ar    1  UNL1        0.2137
     15 N          69.4645   93.3779   15.4188 N.pl3   1  UNL1       -0.3274
     16 N          67.0209   92.5637   15.7603 N.ar    1  UNL1       -0.2125
     17 C          65.7551   91.9837   15.2026 C.ar    1  UNL1        0.1033
     18 H          70.2374   93.5315   14.8287 H       1  UNL1        0.1452
     19 H          69.5224   93.6050   16.3750 H       1  UNL1        0.1452
     20 C          62.5556   86.1254   10.4825 C.ar    1  UNL1        0.2628
     21 N          61.7721   86.9134   11.4901 N.ar    1  UNL1       -0.1907
     22 C          61.3929   88.2218   10.8620 C.ar    1  UNL1        0.1837
     23 N          61.9420   88.2424    9.4663 N.ar    1  UNL1       -0.0599
     24 O          62.6606   86.9468    9.2317 O.2     1  UNL1       -0.3326
     25 N          63.8392   82.6832   11.7348 N.ar    1  UNL1       -0.2468
     26 C          63.1780   84.0057   11.9872 C.ar    1  UNL1        0.1015
     27 C          63.1328   84.7565   10.6894 C.ar    1  UNL1        0.0956
     28 C          63.7660   83.8981    9.6349 C.ar    1  UNL1        0.1264
     29 N          64.2026   82.6166   10.2810 N.ar    1  UNL1       -0.1674
     30 C          64.0926   81.6147   12.7567 C.3     1  UNL1        0.1541
     31 C          62.4781   80.2497   12.9307 C.3     1  UNL1        0.0314
     32 C          63.0612   81.3200   13.8051 C.3     1  UNL1        0.1110
     33 C          63.6442   82.3902   14.6795 C.3     1  UNL1        0.0314
     34 O          62.0297   81.0252   14.8537 O.3     1  UNL1       -0.3848
     35 H          61.4519   80.3092   14.5466 H       1  UNL1        0.2103
@<TRIPOS>BOND
     1    31    32    1
     2    32    33    1
     3    32    34    1
     4    32    30    1
     5    30    25    1
     6    25    26   ar
     7    26    27   ar
     8    27    20    1
     9    20    21   ar
    10    21    22   ar
    11    22     1    1
    12     1     5    1
    13     5     6   ar
    14     6     7   ar
    15     7     8   ar
    16     8    11    1
    17    11    12   ar
    18    12    13   ar
    19    13    14   ar
    20    14    15    1
    21    14    16   ar
    22    16    17   ar
    23     8     9   ar
    24     9    10   ar
    25     1     2    1
    26     2     3    1
    27     3     4    1
    28    22    23   ar
    29    23    24   ar
    30    27    28   ar
    31    28    29   ar
    32    29    25   ar
    33    24    20   ar
    34     4     1    1
    35    10     5   ar
    36    17    11   ar
    37    34    35    1
    38    15    18    1
    39    15    19    1
@<TRIPOS>MOLECULE
*****
 35 39 0 0 0
SMALL
GASTEIGER

@<TRIPOS>ATOM
      1 C          63.6604   90.1796   14.6971 C.3     1  UNL1        0.0744
      2 C          64.2079   91.0265   15.8075 C.3     1  UNL1        0.0113
      3 C          63.5787   90.1113   16.8157 C.3     1  UNL1        0.0015
      4 C          63.0312   89.2645   15.7054 C.3     1  UNL1        0.0113
      5 C          64.2896   91.0948   13.6888 C.ar    1  UNL1       -0.0159
      6 C          65.5318   91.8581   14.0410 C.ar    1  UNL1       -0.0039
      7 C          66.1609   92.7732   13.0327 C.ar    1  UNL1       -0.0002
      8 C          65.5478   92.9250   11.6722 C.ar    1  UNL1        0.0030
      9 C          64.3056   92.1616   11.3199 C.ar    1  UNL1       -0.0002
     10 C          63.6765   91.2465   12.3283 C.ar    1  UNL1       -0.0039
     11 C          66.1770   93.8401   10.6638 C.ar    1  UNL1        0.0384
     12 C          65.6620   95.2389   10.4963 C.ar    1  UNL1        0.1033
     13 N          66.2912   96.1541    9.4880 N.ar    1  UNL1       -0.2125
     14 C          67.4354   95.6704    8.6472 C.ar    1  UNL1        0.2137
     15 N          68.0646   96.5855    7.6389 N.pl3   1  UNL1       -0.3274
     16 N          67.9504   94.2715    8.8148 N.ar    1  UNL1       -0.2125
     17 C          67.3212   93.3564    9.8231 C.ar    1  UNL1        0.1033
     18 H          67.7266   97.5036    7.5289 H       1  UNL1        0.1452
     19 H          68.8156   96.2680    7.0871 H       1  UNL1        0.1452
     20 C          62.7069   87.4602   12.0968 C.ar    1  UNL1        0.2628
     21 N          63.4976   87.9139   13.2881 N.ar    1  UNL1       -0.1907
     22 C          63.1128   89.3327   13.5868 C.ar    1  UNL1        0.1837
     23 N          62.0844   89.7559   12.5801 N.ar    1  UNL1       -0.0599
     24 O          61.8335   88.5986   11.6592 O.2     1  UNL1       -0.3326
     25 N          62.8898   83.7013   11.1472 N.ar    1  UNL1       -0.2468
     26 C          62.8254   84.7911   12.1759 C.ar    1  UNL1        0.1015
     27 C          62.7773   86.1060   11.4557 C.ar    1  UNL1        0.0956
     28 C          62.8119   85.8289    9.9820 C.ar    1  UNL1        0.1264
     29 N          62.8815   84.3427    9.7913 N.ar    1  UNL1       -0.1674
     30 C          62.9516   82.2286   11.4255 C.3     1  UNL1        0.1541
     31 C          61.9282   81.3611   13.0688 C.3     1  UNL1        0.0314
     32 C          63.3521   81.7385   12.7854 C.3     1  UNL1        0.1110
     33 C          64.7759   82.1158   12.5022 C.3     1  UNL1        0.0314
     34 O          63.7526   81.2483   14.1454 O.3     1  UNL1       -0.3848
     35 H          62.9708   80.9126   14.6113 H       1  UNL1        0.2103
@<TRIPOS>BOND
     1    31    32    1
     2    32    33    1
     3    32    34    1
     4    32    30    1
     5    30    25    1
     6    25    26   ar
     7    26    27   ar
     8    27    20    1
     9    20    21   ar
    10    21    22   ar
    11    22     1    1
    12     1     5    1
    13     5     6   ar
    14     6     7   ar
    15     7     8   ar
    16     8    11    1
    17    11    12   ar
    18    12    13   ar
    19    13    14   ar
    20    14    15    1
    21    14    16   ar
    22    16    17   ar
    23     8     9   ar
    24     9    10   ar
    25     1     2    1
    26     2     3    1
    27     3     4    1
    28    22    23   ar
    29    23    24   ar
    30    27    28   ar
    31    28    29   ar
    32    29    25   ar
    33    24    20   ar
    34     4     1    1
    35    10     5   ar
    36    17    11   ar
    37    34    35    1
    38    15    18    1
    39    15    19    1
@<TRIPOS>MOLECULE
*****
 35 39 0 0 0
SMALL
GASTEIGER

@<TRIPOS>ATOM
      1 C          64.9999   91.7691   13.4219 C.3     1  UNL1        0.0744
      2 C          65.5769   92.5065   12.2501 C.3     1  UNL1        0.0113
      3 C          66.4687   93.2797   13.1757 C.3     1  UNL1        0.0015
      4 C          65.8917   92.5423   14.3475 C.3     1  UNL1        0.0113
      5 C          64.1080   90.9958   12.4963 C.ar    1  UNL1       -0.0159
      6 C          63.7168   89.5877   12.8341 C.ar    1  UNL1       -0.0039
      7 C          62.8250   88.8145   11.9085 C.ar    1  UNL1       -0.0002
      8 C          62.3243   89.4495   10.6451 C.ar    1  UNL1        0.0030
      9 C          62.7155   90.8576   10.3073 C.ar    1  UNL1       -0.0002
     10 C          63.6073   91.6307   11.2329 C.ar    1  UNL1       -0.0039
     11 C          61.4325   88.6762    9.7195 C.ar    1  UNL1        0.0384
     12 C          60.3831   89.3894    8.9193 C.ar    1  UNL1        0.1033
     13 N          59.4913   88.6161    7.9937 N.ar    1  UNL1       -0.2125
     14 C          59.6488   87.1297    7.8683 C.ar    1  UNL1        0.2137
     15 N          58.7570   86.3564    6.9427 N.pl3   1  UNL1       -0.3274
     16 N          60.6982   86.4165    8.6685 N.ar    1  UNL1       -0.2125
     17 C          61.5900   87.1898    9.5941 C.ar    1  UNL1        0.1033
     18 H          58.0683   86.8245    6.4176 H       1  UNL1        0.1452
     19 H          58.8604   85.3808    6.8604 H       1  UNL1        0.1452
     20 C          63.6245   89.2475   16.0326 C.ar    1  UNL1        0.2628
     21 N          64.2286   89.5476   14.6928 N.ar    1  UNL1       -0.1907
     22 C          64.4229   91.0317   14.5938 C.ar    1  UNL1        0.1837
     23 N          63.9389   91.6489   15.8724 N.ar    1  UNL1       -0.0599
     24 O          63.4455   90.5462   16.7617 O.2     1  UNL1       -0.3326
     25 N          62.9103   85.4908   16.6970 N.ar    1  UNL1       -0.2468
     26 C          63.3799   86.5961   15.7983 C.ar    1  UNL1        0.1015
     27 C          63.2630   87.8877   16.5522 C.ar    1  UNL1        0.0956
     28 C          62.7211   87.5806   17.9167 C.ar    1  UNL1        0.1264
     29 N          62.5031   86.0991   18.0062 N.ar    1  UNL1       -0.1674
     30 C          62.8571   84.0329   16.3478 C.3     1  UNL1        0.1541
     31 C          64.7310   84.1217   15.3574 C.3     1  UNL1        0.0314
     32 C          63.3809   83.5591   15.0245 C.3     1  UNL1        0.1110
     33 C          62.0309   82.9965   14.6916 C.3     1  UNL1        0.0314
     34 O          63.9046   83.0852   13.7011 O.3     1  UNL1       -0.3848
     35 H          64.8407   83.3260   13.6188 H       1  UNL1        0.2103
@<TRIPOS>BOND
     1    31    32    1
     2    32    33    1
     3    32    34    1
     4    32    30    1
     5    30    25    1
     6    25    26   ar
     7    26    27   ar
     8    27    20    1
     9    20    21   ar
    10    21    22   ar
    11    22     1    1
    12     1     5    1
    13     5     6   ar
    14     6     7   ar
    15     7     8   ar
    16     8    11    1
    17    11    12   ar
    18    12    13   ar
    19    13    14   ar
    20    14    15    1
    21    14    16   ar
    22    16    17   ar
    23     8     9   ar
    24     9    10   ar
    25     1     2    1
    26     2     3    1
    27     3     4    1
    28    22    23   ar
    29    23    24   ar
    30    27    28   ar
    31    28    29   ar
    32    29    25   ar
    33    24    20   ar
    34     4     1    1
    35    10     5   ar
    36    17    11   ar
    37    34    35    1
    38    15    18    1
    39    15    19    1
