@<TRIPOS>MOLECULE
*****
 30 33 0 0 0
SMALL
GASTEIGER

@<TRIPOS>ATOM
      1 C          63.6457   85.8665   13.9710 C.ar    1  UNL1        0.1342
      2 C          62.8342   85.7461   12.7153 C.ar    1  UNL1        0.0238
      3 C          62.5902   86.9548   11.8612 C.ar    1  UNL1        0.0031
      4 C          63.1578   88.2840   12.2628 C.ar    1  UNL1        0.0177
      5 C          62.9138   89.4927   11.4088 C.ar    1  UNL1        0.0012
      6 C          63.4814   90.8217   11.8104 C.ar    1  UNL1       -0.0025
      7 C          64.2930   90.9421   13.0662 C.ar    1  UNL1       -0.0004
      8 C          64.5369   89.7334   13.9202 C.ar    1  UNL1        0.0165
      9 C          63.9693   88.4043   13.5186 C.ar    1  UNL1        0.0812
     10 N          64.2133   87.1955   14.3727 N.ar    1  UNL1       -0.2408
     11 C          61.7786   86.8344   10.6055 C.ar    1  UNL1        0.0002
     12 C          62.3163   86.0645    9.4359 C.ar    1  UNL1        0.0023
     13 C          61.5047   85.9441    8.1801 C.ar    1  UNL1        0.0296
     14 C          60.1555   86.5937    8.0940 C.ar    1  UNL1        0.1401
     15 F          59.3439   86.4733    6.8383 F       1  UNL1       -0.2042
     16 C          59.6177   87.3637    9.2636 C.ar    1  UNL1        0.0296
     17 C          60.4293   87.4841   10.5194 C.ar    1  UNL1        0.0023
     18 N          65.2702   84.0806   14.9312 N.am    1  UNL1       -0.3241
     19 C          63.8897   84.6577   14.8251 C.2     1  UNL1        0.2605
     20 O          62.7532   84.0260   15.5730 O.2     1  UNL1       -0.2687
     21 H          65.4303   83.2873   15.4917 H       1  UNL1        0.1453
     22 H          66.0161   84.4952   14.4403 H       1  UNL1        0.1453
     23 C          64.8606   92.2713   13.4678 C.3     1  UNL1        0.1274
     24 N          66.0950   92.3337   14.3177 N.am    1  UNL1       -0.2255
     25 C          66.1317   92.4920   15.8088 C.2     1  UNL1        0.2321
     26 O          64.9405   92.6156   16.7119 O.2     1  UNL1       -0.2744
     27 C          67.5688   92.5050   16.2383 C.3     1  UNL1        0.0953
     28 C          68.4204   92.3547   15.0125 C.3     1  UNL1        0.0953
     29 C          67.5094   92.2489   13.8255 C.2     1  UNL1        0.2321
     30 O          67.9378   92.0867   12.3972 O.2     1  UNL1       -0.2744
@<TRIPOS>BOND
     1    18    19   am
     2    19    20    2
     3    19     1    1
     4     1     2   ar
     5     2     3   ar
     6     3    11    1
     7    11    12   ar
     8    12    13   ar
     9    13    14   ar
    10    14    15    1
    11    14    16   ar
    12    16    17   ar
    13     3     4   ar
    14     4     5   ar
    15     5     6   ar
    16     6     7   ar
    17     7    23    1
    18    23    24    1
    19    24    25   am
    20    25    26    2
    21    25    27    1
    22    27    28    1
    23    28    29    1
    24    29    30    2
    25     7     8   ar
    26     8     9   ar
    27     9    10   ar
    28    10     1   ar
    29    17    11   ar
    30     9     4   ar
    31    29    24   am
    32    18    21    1
    33    18    22    1
@<TRIPOS>MOLECULE
*****
 30 33 0 0 0
SMALL
GASTEIGER

@<TRIPOS>ATOM
      1 C          60.6845   87.2394    9.2018 C.ar    1  UNL1        0.1342
      2 C          61.2254   85.9631    9.7751 C.ar    1  UNL1        0.0238
      3 C          62.1460   86.0035   10.9586 C.ar    1  UNL1        0.0031
      4 C          62.5259   87.3201   11.5689 C.ar    1  UNL1        0.0177
      5 C          63.4465   87.3604   12.7524 C.ar    1  UNL1        0.0012
      6 C          63.8263   88.6769   13.3626 C.ar    1  UNL1       -0.0025
      7 C          63.2854   89.9532   12.7893 C.ar    1  UNL1       -0.0004
      8 C          62.3648   89.9129   11.6058 C.ar    1  UNL1        0.0165
      9 C          61.9850   88.5963   10.9956 C.ar    1  UNL1        0.0812
     10 N          61.0643   88.5559    9.8120 N.ar    1  UNL1       -0.2408
     11 C          62.6869   84.7272   11.5319 C.ar    1  UNL1        0.0002
     12 C          63.5078   83.8090   10.6758 C.ar    1  UNL1        0.0023
     13 C          64.0487   82.5328   11.2491 C.ar    1  UNL1        0.0296
     14 C          63.7686   82.1747   12.6786 C.ar    1  UNL1        0.1401
     15 F          64.3094   80.8985   13.2519 F       1  UNL1       -0.2042
     16 C          62.9476   83.0929   13.5347 C.ar    1  UNL1        0.0296
     17 C          62.4067   84.3692   12.9614 C.ar    1  UNL1        0.0023
     18 N          59.3856   85.8825    7.4069 N.am    1  UNL1       -0.3241
     19 C          59.7638   87.1990    8.0182 C.2     1  UNL1        0.2605
     20 O          59.2214   88.4751    7.4461 O.2     1  UNL1       -0.2687
     21 H          58.7813   85.8560    6.6301 H       1  UNL1        0.1453
     22 H          59.7416   85.0450    7.7824 H       1  UNL1        0.1453
     23 C          63.6653   91.2698   13.3995 C.3     1  UNL1        0.1274
     24 N          64.9781   91.9066   13.0519 N.am    1  UNL1       -0.2255
     25 C          65.3896   92.3940   11.6943 C.2     1  UNL1        0.2321
     26 O          64.5605   92.3300   10.4459 O.2     1  UNL1       -0.2744
     27 C          66.7757   92.9565   11.8042 C.3     1  UNL1        0.0953
     28 C          67.2210   92.8169   13.2298 C.3     1  UNL1        0.0953
     29 C          66.1100   92.1680   14.0009 C.2     1  UNL1        0.2321
     30 O          66.1277   91.8384   15.4641 O.2     1  UNL1       -0.2744
@<TRIPOS>BOND
     1    18    19   am
     2    19    20    2
     3    19     1    1
     4     1     2   ar
     5     2     3   ar
     6     3    11    1
     7    11    12   ar
     8    12    13   ar
     9    13    14   ar
    10    14    15    1
    11    14    16   ar
    12    16    17   ar
    13     3     4   ar
    14     4     5   ar
    15     5     6   ar
    16     6     7   ar
    17     7    23    1
    18    23    24    1
    19    24    25   am
    20    25    26    2
    21    25    27    1
    22    27    28    1
    23    28    29    1
    24    29    30    2
    25     7     8   ar
    26     8     9   ar
    27     9    10   ar
    28    10     1   ar
    29    17    11   ar
    30     9     4   ar
    31    29    24   am
    32    18    21    1
    33    18    22    1
@<TRIPOS>MOLECULE
*****
 30 33 0 0 0
SMALL
GASTEIGER

@<TRIPOS>ATOM
      1 C          61.9100   88.6759   11.1142 C.ar    1  UNL1        0.1342
      2 C          62.5903   89.6687   12.0096 C.ar    1  UNL1        0.0238
      3 C          63.4713   89.1914   13.1258 C.ar    1  UNL1        0.0031
      4 C          63.6721   87.7213   13.3467 C.ar    1  UNL1        0.0177
      5 C          64.5531   87.2441   14.4629 C.ar    1  UNL1        0.0012
      6 C          64.7538   85.7741   14.6837 C.ar    1  UNL1       -0.0025
      7 C          64.0735   84.7814   13.7884 C.ar    1  UNL1       -0.0004
      8 C          63.1925   85.2586   12.6721 C.ar    1  UNL1        0.0165
      9 C          62.9918   86.7286   12.4513 C.ar    1  UNL1        0.0812
     10 N          62.1108   87.2060   11.3350 N.ar    1  UNL1       -0.2408
     11 C          64.1516   90.1841   14.0212 C.ar    1  UNL1        0.0002
     12 C          63.5928   90.4720   15.3831 C.ar    1  UNL1        0.0023
     13 C          64.2731   91.4647   16.2784 C.ar    1  UNL1        0.0296
     14 C          65.5122   92.1696   15.8119 C.ar    1  UNL1        0.1401
     15 F          66.1925   93.1623   16.7073 F       1  UNL1       -0.2042
     16 C          66.0711   91.8817   14.4499 C.ar    1  UNL1        0.0296
     17 C          65.3908   90.8890   13.5546 C.ar    1  UNL1        0.0023
     18 N          60.4619   90.5415   10.0313 N.am    1  UNL1       -0.3241
     19 C          61.0290   89.1533    9.9979 C.2     1  UNL1        0.2605
     20 O          60.7151   88.2424    8.8483 O.2     1  UNL1       -0.2687
     21 H          59.8836   90.8548    9.2987 H       1  UNL1        0.1453
     22 H          60.6679   91.1394   10.7859 H       1  UNL1        0.1453
     23 C          64.2743   83.3113   14.0093 C.3     1  UNL1        0.1274
     24 N          63.7103   82.3223   13.0327 N.am    1  UNL1       -0.2255
     25 C          64.0551   82.2270   11.5760 C.2     1  UNL1        0.2321
     26 O          65.0242   83.1039   10.8400 O.2     1  UNL1       -0.2744
     27 C          63.2605   81.1007   10.9843 C.3     1  UNL1        0.0953
     28 C          62.4246   80.4998   12.0754 C.3     1  UNL1        0.0953
     29 C          62.7027   81.2549   13.3414 C.2     1  UNL1        0.2321
     30 O          62.0820   80.9891   14.6808 O.2     1  UNL1       -0.2744
@<TRIPOS>BOND
     1    18    19   am
     2    19    20    2
     3    19     1    1
     4     1     2   ar
     5     2     3   ar
     6     3    11    1
     7    11    12   ar
     8    12    13   ar
     9    13    14   ar
    10    14    15    1
    11    14    16   ar
    12    16    17   ar
    13     3     4   ar
    14     4     5   ar
    15     5     6   ar
    16     6     7   ar
    17     7    23    1
    18    23    24    1
    19    24    25   am
    20    25    26    2
    21    25    27    1
    22    27    28    1
    23    28    29    1
    24    29    30    2
    25     7     8   ar
    26     8     9   ar
    27     9    10   ar
    28    10     1   ar
    29    17    11   ar
    30     9     4   ar
    31    29    24   am
    32    18    21    1
    33    18    22    1
@<TRIPOS>MOLECULE
*****
 30 33 0 0 0
SMALL
GASTEIGER

@<TRIPOS>ATOM
      1 C          61.8553   88.6493   11.1052 C.ar    1  UNL1        0.1342
      2 C          62.5441   89.6457   11.9899 C.ar    1  UNL1        0.0238
      3 C          63.4370   89.1731   13.0986 C.ar    1  UNL1        0.0031
      4 C          63.6411   87.7040   13.3227 C.ar    1  UNL1        0.0177
      5 C          64.5340   87.2313   14.4314 C.ar    1  UNL1        0.0012
      6 C          64.7382   85.7623   14.6553 C.ar    1  UNL1       -0.0025
      7 C          64.0494   84.7659   13.7706 C.ar    1  UNL1       -0.0004
      8 C          63.1565   85.2385   12.6619 C.ar    1  UNL1        0.0165
      9 C          62.9524   86.7076   12.4379 C.ar    1  UNL1        0.0812
     10 N          62.0594   87.1803   11.3291 N.ar    1  UNL1       -0.2408
     11 C          64.1257   90.1695   13.9834 C.ar    1  UNL1        0.0002
     12 C          65.3288   90.9120   13.4822 C.ar    1  UNL1        0.0023
     13 C          66.0176   91.9084   14.3669 C.ar    1  UNL1        0.0296
     14 C          65.5033   92.1623   15.7529 C.ar    1  UNL1        0.1401
     15 F          66.1920   93.1587   16.6377 F       1  UNL1       -0.2042
     16 C          64.3001   91.4198   16.2542 C.ar    1  UNL1        0.0296
     17 C          63.6114   90.4234   15.3694 C.ar    1  UNL1        0.0023
     18 N          60.3365   90.4835   10.0662 N.am    1  UNL1       -0.3241
     19 C          60.9624   89.1220    9.9964 C.2     1  UNL1        0.2605
     20 O          60.6953   88.2334    8.8179 O.2     1  UNL1       -0.2687
     21 H          59.7505   90.7937    9.3385 H       1  UNL1        0.1453
     22 H          60.5118   91.0667   10.8397 H       1  UNL1        0.1453
     23 C          64.2536   83.2968   13.9946 C.3     1  UNL1        0.1274
     24 N          63.7108   82.3052   13.0086 N.am    1  UNL1       -0.2255
     25 C          62.7371   81.2048   13.3100 C.2     1  UNL1        0.2321
     26 O          62.1350   80.9028   14.6502 O.2     1  UNL1       -0.2744
     27 C          62.4710   80.4595   12.0358 C.3     1  UNL1        0.0953
     28 C          63.2804   81.0992   10.9468 C.3     1  UNL1        0.0953
     29 C          64.0466   82.2399   11.5481 C.2     1  UNL1        0.2321
     30 O          64.9841   83.1548   10.8172 O.2     1  UNL1       -0.2744
@<TRIPOS>BOND
     1    18    19   am
     2    19    20    2
     3    19     1    1
     4     1     2   ar
     5     2     3   ar
     6     3    11    1
     7    11    12   ar
     8    12    13   ar
     9    13    14   ar
    10    14    15    1
    11    14    16   ar
    12    16    17   ar
    13     3     4   ar
    14     4     5   ar
    15     5     6   ar
    16     6     7   ar
    17     7    23    1
    18    23    24    1
    19    24    25   am
    20    25    26    2
    21    25    27    1
    22    27    28    1
    23    28    29    1
    24    29    30    2
    25     7     8   ar
    26     8     9   ar
    27     9    10   ar
    28    10     1   ar
    29    17    11   ar
    30     9     4   ar
    31    29    24   am
    32    18    21    1
    33    18    22    1
@<TRIPOS>MOLECULE
*****
 30 33 0 0 0
SMALL
GASTEIGER

@<TRIPOS>ATOM
      1 C          60.6344   88.0990    9.2935 C.ar    1  UNL1        0.1342
      2 C          61.4776   89.2619    9.7254 C.ar    1  UNL1        0.0238
      3 C          62.4538   89.1026   10.8530 C.ar    1  UNL1        0.0031
      4 C          62.5868   87.7804   11.5488 C.ar    1  UNL1        0.0177
      5 C          63.5631   87.6211   12.6764 C.ar    1  UNL1        0.0012
      6 C          63.6960   86.2989   13.3721 C.ar    1  UNL1       -0.0025
      7 C          62.8528   85.1360   12.9402 C.ar    1  UNL1       -0.0004
      8 C          61.8766   85.2953   11.8125 C.ar    1  UNL1        0.0165
      9 C          61.7436   86.6175   11.1168 C.ar    1  UNL1        0.0812
     10 N          60.7673   86.7768    9.9892 N.ar    1  UNL1       -0.2408
     11 C          63.2971   90.2655   11.2849 C.ar    1  UNL1        0.0002
     12 C          63.6796   90.4200   12.7270 C.ar    1  UNL1        0.0023
     13 C          64.5228   91.5829   13.1590 C.ar    1  UNL1        0.0296
     14 C          64.9836   92.5914   12.1487 C.ar    1  UNL1        0.1401
     15 F          65.8268   93.7543   12.5807 F       1  UNL1       -0.2042
     16 C          64.6011   92.4370   10.7065 C.ar    1  UNL1        0.0296
     17 C          63.7578   91.2741   10.2746 C.ar    1  UNL1        0.0023
     18 N          59.6909   89.4927    7.3142 N.am    1  UNL1       -0.3241
     19 C          59.6581   88.2584    8.1658 C.2     1  UNL1        0.2605
     20 O          58.6491   87.1834    7.8897 O.2     1  UNL1       -0.2687
     21 H          59.0502   89.5973    6.5740 H       1  UNL1        0.1453
     22 H          60.3532   90.1983    7.4953 H       1  UNL1        0.1453
     23 C          62.9858   83.8137   13.6359 C.3     1  UNL1        0.1274
     24 N          62.9653   82.5422   12.8404 N.am    1  UNL1       -0.2255
     25 C          63.7555   82.2684   11.5952 C.2     1  UNL1        0.2321
     26 O          64.7049   83.2180   10.9269 O.2     1  UNL1       -0.2744
     27 C          63.4295   80.8783   11.1357 C.3     1  UNL1        0.0953
     28 C          62.4378   80.2928   12.0969 C.3     1  UNL1        0.0953
     29 C          62.1509   81.3212   13.1505 C.2     1  UNL1        0.2321
     30 O          61.2141   81.1574   14.3105 O.2     1  UNL1       -0.2744
@<TRIPOS>BOND
     1    18    19   am
     2    19    20    2
     3    19     1    1
     4     1     2   ar
     5     2     3   ar
     6     3    11    1
     7    11    12   ar
     8    12    13   ar
     9    13    14   ar
    10    14    15    1
    11    14    16   ar
    12    16    17   ar
    13     3     4   ar
    14     4     5   ar
    15     5     6   ar
    16     6     7   ar
    17     7    23    1
    18    23    24    1
    19    24    25   am
    20    25    26    2
    21    25    27    1
    22    27    28    1
    23    28    29    1
    24    29    30    2
    25     7     8   ar
    26     8     9   ar
    27     9    10   ar
    28    10     1   ar
    29    17    11   ar
    30     9     4   ar
    31    29    24   am
    32    18    21    1
    33    18    22    1
@<TRIPOS>MOLECULE
*****
 30 33 0 0 0
SMALL
GASTEIGER

@<TRIPOS>ATOM
      1 C          63.9366   88.7103   14.2350 C.ar    1  UNL1        0.1342
      2 C          63.0387   88.3749   13.0812 C.ar    1  UNL1        0.0238
      3 C          62.9712   89.2882   11.8933 C.ar    1  UNL1        0.0031
      4 C          63.8017   90.5369   11.8591 C.ar    1  UNL1        0.0177
      5 C          63.7342   91.4502   10.6711 C.ar    1  UNL1        0.0012
      6 C          64.5646   92.6988   10.6369 C.ar    1  UNL1       -0.0025
      7 C          65.4626   93.0342   11.7907 C.ar    1  UNL1       -0.0004
      8 C          65.5301   92.1209   12.9787 C.ar    1  UNL1        0.0165
      9 C          64.6996   90.8723   13.0128 C.ar    1  UNL1        0.0812
     10 N          64.7671   89.9589   14.2008 N.ar    1  UNL1       -0.2408
     11 C          62.0732   88.9529   10.7395 C.ar    1  UNL1        0.0002
     12 C          62.2401   87.6514   10.0128 C.ar    1  UNL1        0.0023
     13 C          61.3421   87.3161    8.8590 C.ar    1  UNL1        0.0296
     14 C          60.2772   88.2823    8.4320 C.ar    1  UNL1        0.1401
     15 F          59.3793   87.9469    7.2782 F       1  UNL1       -0.2042
     16 C          60.1103   89.5839    9.1587 C.ar    1  UNL1        0.0296
     17 C          61.0083   89.9192   10.3124 C.ar    1  UNL1        0.0023
     18 N          63.2885   88.1605   16.6902 N.am    1  UNL1       -0.3241
     19 C          64.0041   87.7969   15.4230 C.2     1  UNL1        0.2605
     20 O          64.7871   86.5200   15.3438 O.2     1  UNL1       -0.2687
     21 H          63.3328   87.5611   17.4699 H       1  UNL1        0.1453
     22 H          62.7745   88.9986   16.7422 H       1  UNL1        0.1453
     23 C          66.2931   94.2829   11.7565 C.3     1  UNL1        0.1274
     24 N          66.5894   94.9509   10.4466 N.am    1  UNL1       -0.2255
     25 C          67.6658   94.5564    9.4793 C.2     1  UNL1        0.2321
     26 O          68.6350   93.4247    9.6521 O.2     1  UNL1       -0.2744
     27 C          67.6029   95.4924    8.3088 C.3     1  UNL1        0.0953
     28 C          66.4876   96.4654    8.5527 C.3     1  UNL1        0.0953
     29 C          65.8612   96.1307    9.8739 C.2     1  UNL1        0.2321
     30 O          64.7090   96.8496   10.5107 O.2     1  UNL1       -0.2744
@<TRIPOS>BOND
     1    18    19   am
     2    19    20    2
     3    19     1    1
     4     1     2   ar
     5     2     3   ar
     6     3    11    1
     7    11    12   ar
     8    12    13   ar
     9    13    14   ar
    10    14    15    1
    11    14    16   ar
    12    16    17   ar
    13     3     4   ar
    14     4     5   ar
    15     5     6   ar
    16     6     7   ar
    17     7    23    1
    18    23    24    1
    19    24    25   am
    20    25    26    2
    21    25    27    1
    22    27    28    1
    23    28    29    1
    24    29    30    2
    25     7     8   ar
    26     8     9   ar
    27     9    10   ar
    28    10     1   ar
    29    17    11   ar
    30     9     4   ar
    31    29    24   am
    32    18    21    1
    33    18    22    1
@<TRIPOS>MOLECULE
*****
 30 33 0 0 0
SMALL
GASTEIGER

@<TRIPOS>ATOM
      1 C          63.1962   85.0999   13.3917 C.ar    1  UNL1        0.1342
      2 C          62.7492   84.8247   11.9865 C.ar    1  UNL1        0.0238
      3 C          62.6004   85.9551   11.0119 C.ar    1  UNL1        0.0031
      4 C          62.8986   87.3608   11.4424 C.ar    1  UNL1        0.0177
      5 C          62.7498   88.4912   10.4678 C.ar    1  UNL1        0.0012
      6 C          63.0480   89.8968   10.8983 C.ar    1  UNL1       -0.0025
      7 C          63.4950   90.1719   12.3035 C.ar    1  UNL1       -0.0004
      8 C          63.6438   89.0415   13.2781 C.ar    1  UNL1        0.0165
      9 C          63.3456   87.6359   12.8475 C.ar    1  UNL1        0.0812
     10 N          63.4944   86.5054   13.8222 N.ar    1  UNL1       -0.2408
     11 C          62.1534   85.6800    9.6067 C.ar    1  UNL1        0.0002
     12 C          60.7804   86.0895    9.1627 C.ar    1  UNL1        0.0023
     13 C          60.3334   85.8144    7.7575 C.ar    1  UNL1        0.0296
     14 C          61.2594   85.1297    6.7964 C.ar    1  UNL1        0.1401
     15 F          60.8124   84.8546    5.3912 F       1  UNL1       -0.2042
     16 C          62.6324   84.7201    7.2404 C.ar    1  UNL1        0.0296
     17 C          63.0794   84.9953    8.6456 C.ar    1  UNL1        0.0023
     18 N          62.4267   82.7858   14.2880 N.am    1  UNL1       -0.3241
     19 C          63.3450   83.9693   14.3663 C.2     1  UNL1        0.2605
     20 O          64.4120   84.0223   15.4192 O.2     1  UNL1       -0.2687
     21 H          62.5243   82.0439   14.9277 H       1  UNL1        0.1453
     22 H          61.7264   82.7511   13.5969 H       1  UNL1        0.1453
     23 C          63.7932   91.5776   12.7340 C.3     1  UNL1        0.1274
     24 N          64.9920   91.8615   13.5897 N.am    1  UNL1       -0.2255
     25 C          66.3604   92.2277   13.0966 C.2     1  UNL1        0.2321
     26 O          66.7705   92.3743   11.6612 O.2     1  UNL1       -0.2744
     27 C          67.2470   92.4217   14.2910 C.3     1  UNL1        0.0953
     28 C          66.4264   92.1753   15.5223 C.3     1  UNL1        0.0953
     29 C          65.0327   91.8292   15.0888 C.2     1  UNL1        0.2321
     30 O          63.8819   91.5071   15.9954 O.2     1  UNL1       -0.2744
@<TRIPOS>BOND
     1    18    19   am
     2    19    20    2
     3    19     1    1
     4     1     2   ar
     5     2     3   ar
     6     3    11    1
     7    11    12   ar
     8    12    13   ar
     9    13    14   ar
    10    14    15    1
    11    14    16   ar
    12    16    17   ar
    13     3     4   ar
    14     4     5   ar
    15     5     6   ar
    16     6     7   ar
    17     7    23    1
    18    23    24    1
    19    24    25   am
    20    25    26    2
    21    25    27    1
    22    27    28    1
    23    28    29    1
    24    29    30    2
    25     7     8   ar
    26     8     9   ar
    27     9    10   ar
    28    10     1   ar
    29    17    11   ar
    30     9     4   ar
    31    29    24   am
    32    18    21    1
    33    18    22    1
@<TRIPOS>MOLECULE
*****
 30 33 0 0 0
SMALL
GASTEIGER

@<TRIPOS>ATOM
      1 C          63.9339   88.2944   14.1766 C.ar    1  UNL1        0.1342
      2 C          63.0263   88.0101   13.0166 C.ar    1  UNL1        0.0238
      3 C          62.9300   88.9873   11.8827 C.ar    1  UNL1        0.0031
      4 C          63.7413   90.2488   11.9087 C.ar    1  UNL1        0.0177
      5 C          63.6450   91.2259   10.7748 C.ar    1  UNL1        0.0012
      6 C          64.4562   92.4873   10.8008 C.ar    1  UNL1       -0.0025
      7 C          65.3638   92.7715   11.9607 C.ar    1  UNL1       -0.0004
      8 C          65.4601   91.7944   13.0947 C.ar    1  UNL1        0.0165
      9 C          64.6489   90.5330   13.0686 C.ar    1  UNL1        0.0812
     10 N          64.7452   89.5558   14.2026 N.ar    1  UNL1       -0.2408
     11 C          62.0224   88.7031   10.7228 C.ar    1  UNL1        0.0002
     12 C          62.1445   87.4088    9.9745 C.ar    1  UNL1        0.0023
     13 C          61.2369   87.1246    8.8145 C.ar    1  UNL1        0.0296
     14 C          60.2072   88.1346    8.4029 C.ar    1  UNL1        0.1401
     15 F          59.2996   87.8504    7.2429 F       1  UNL1       -0.2042
     16 C          60.0851   89.4290    9.1512 C.ar    1  UNL1        0.0296
     17 C          60.9926   89.7132   10.3111 C.ar    1  UNL1        0.0023
     18 N          63.2334   87.5394   16.5619 N.am    1  UNL1       -0.3241
     19 C          64.0302   87.3171   15.3106 C.2     1  UNL1        0.2605
     20 O          64.9233   86.1177   15.1932 O.2     1  UNL1       -0.2687
     21 H          63.2966   86.8980   17.3061 H       1  UNL1        0.1453
     22 H          62.6473   88.3266   16.6389 H       1  UNL1        0.1453
     23 C          66.1751   94.0330   11.9867 C.3     1  UNL1        0.1274
     24 N          66.5637   94.7014   10.7014 N.am    1  UNL1       -0.2255
     25 C          66.0177   95.9983   10.1819 C.2     1  UNL1        0.2321
     26 O          64.9874   96.8546   10.8566 O.2     1  UNL1       -0.2744
     27 C          66.6830   96.2888    8.8693 C.3     1  UNL1        0.0953
     28 C          67.6402   95.1713    8.5774 C.3     1  UNL1        0.0953
     29 C          67.5664   94.1902    9.7098 C.2     1  UNL1        0.2321
     30 O          68.3566   92.9209    9.8294 O.2     1  UNL1       -0.2744
@<TRIPOS>BOND
     1    18    19   am
     2    19    20    2
     3    19     1    1
     4     1     2   ar
     5     2     3   ar
     6     3    11    1
     7    11    12   ar
     8    12    13   ar
     9    13    14   ar
    10    14    15    1
    11    14    16   ar
    12    16    17   ar
    13     3     4   ar
    14     4     5   ar
    15     5     6   ar
    16     6     7   ar
    17     7    23    1
    18    23    24    1
    19    24    25   am
    20    25    26    2
    21    25    27    1
    22    27    28    1
    23    28    29    1
    24    29    30    2
    25     7     8   ar
    26     8     9   ar
    27     9    10   ar
    28    10     1   ar
    29    17    11   ar
    30     9     4   ar
    31    29    24   am
    32    18    21    1
    33    18    22    1
@<TRIPOS>MOLECULE
*****
 30 33 0 0 0
SMALL
GASTEIGER

@<TRIPOS>ATOM
      1 C          65.3557   92.0848   12.9916 C.ar    1  UNL1        0.1342
      2 C          65.1100   91.0869   14.0842 C.ar    1  UNL1        0.0238
      3 C          64.0969   89.9977   13.8912 C.ar    1  UNL1        0.0031
      4 C          63.3294   89.9065   12.6056 C.ar    1  UNL1        0.0177
      5 C          62.3163   88.8173   12.4127 C.ar    1  UNL1        0.0012
      6 C          61.5488   88.7261   11.1272 C.ar    1  UNL1       -0.0025
      7 C          61.7945   89.7240   10.0346 C.ar    1  UNL1       -0.0004
      8 C          62.8076   90.8132   10.2275 C.ar    1  UNL1        0.0165
      9 C          63.5751   90.9044   11.5130 C.ar    1  UNL1        0.0812
     10 N          64.5883   91.9936   11.7060 N.ar    1  UNL1       -0.2408
     11 C          63.8512   88.9998   14.9838 C.ar    1  UNL1        0.0002
     12 C          64.2715   87.5713   14.8033 C.ar    1  UNL1        0.0023
     13 C          64.0259   86.5734   15.8959 C.ar    1  UNL1        0.0296
     14 C          63.3598   87.0040   17.1690 C.ar    1  UNL1        0.1401
     15 F          63.1142   86.0060   18.2616 F       1  UNL1       -0.2042
     16 C          62.9395   88.4325   17.3497 C.ar    1  UNL1        0.0296
     17 C          63.1852   89.4305   16.2571 C.ar    1  UNL1        0.0023
     18 N          66.6166   93.7338   14.5539 N.am    1  UNL1       -0.3241
     19 C          66.3689   93.1740   13.1846 C.2     1  UNL1        0.2605
     20 O          67.1344   93.7033   12.0082 O.2     1  UNL1       -0.2687
     21 H          67.2816   94.4487   14.6806 H       1  UNL1        0.1453
     22 H          66.1142   93.3864   15.3260 H       1  UNL1        0.1453
     23 C          61.0270   89.6328    8.7490 C.3     1  UNL1        0.1274
     24 N          60.4789   88.3125    8.2948 N.am    1  UNL1       -0.2255
     25 C          59.2060   88.1025    7.5296 C.2     1  UNL1        0.2321
     26 O          58.2577   89.1759    7.0842 O.2     1  UNL1       -0.2744
     27 C          59.0479   86.6305    7.2880 C.3     1  UNL1        0.0953
     28 C          60.2231   85.9308    7.9038 C.3     1  UNL1        0.0953
     29 C          61.1075   86.9703    8.5261 C.2     1  UNL1        0.2321
     30 O          62.3945   86.7128    9.2522 O.2     1  UNL1       -0.2744
@<TRIPOS>BOND
     1    18    19   am
     2    19    20    2
     3    19     1    1
     4     1     2   ar
     5     2     3   ar
     6     3    11    1
     7    11    12   ar
     8    12    13   ar
     9    13    14   ar
    10    14    15    1
    11    14    16   ar
    12    16    17   ar
    13     3     4   ar
    14     4     5   ar
    15     5     6   ar
    16     6     7   ar
    17     7    23    1
    18    23    24    1
    19    24    25   am
    20    25    26    2
    21    25    27    1
    22    27    28    1
    23    28    29    1
    24    29    30    2
    25     7     8   ar
    26     8     9   ar
    27     9    10   ar
    28    10     1   ar
    29    17    11   ar
    30     9     4   ar
    31    29    24   am
    32    18    21    1
    33    18    22    1
