@<TRIPOS>MOLECULE
*****
 31 34 0 0 0
SMALL
GASTEIGER

@<TRIPOS>ATOM
      1 N          62.3199   89.1547    9.7856 N.am    1  UNL1       -0.2791
      2 C          62.0492   89.9748   11.0120 C.2     1  UNL1        0.2526
      3 O          60.6368   90.2900   11.4067 O.2     1  UNL1       -0.2697
      4 H          63.2469   88.9479    9.5265 H       1  UNL1        0.1552
      5 C          59.3578   89.0594    7.1461 C.ar    1  UNL1        0.1071
      6 C          58.8951   87.6400    7.2904 C.ar    1  UNL1        0.0199
      7 C          59.5739   86.7254    8.2665 C.ar    1  UNL1        0.0201
      8 C          60.7155   87.2303    9.0982 C.ar    1  UNL1        0.0790
      9 C          61.1783   88.6498    8.9538 C.ar    1  UNL1        0.0682
     10 C          60.4994   89.5643    7.9778 C.ar    1  UNL1        0.0345
     11 N          61.3944   86.3157   10.0743 N.ar    1  UNL1       -0.2852
     12 C          62.3533   85.2146    9.7307 C.ar    1  UNL1        0.1023
     13 C          62.7850   84.5600   11.0094 C.ar    1  UNL1        0.1196
     14 N          62.0930   85.2566   12.1433 N.ar    1  UNL1       -0.2220
     15 C          61.2335   86.3416   11.5654 C.ar    1  UNL1        0.1829
     16 C          58.0002   90.8886    5.1939 C.3     1  UNL1        0.1816
     17 S          58.6790   89.9740    6.1700 S.O2    1  UNL1        0.0105
     18 O          57.3414   89.5055    6.6613 O.2     1  UNL1       -0.1686
     19 O          60.0166   90.4425    5.6787 O.2     1  UNL1       -0.1686
     20 C          63.1908   90.4798   11.8437 C.ar    1  UNL1        0.0919
     21 C          63.4739   89.8639   13.1818 C.ar    1  UNL1        0.1066
     22 N          64.6155   90.3689   14.0134 N.ar    1  UNL1       -0.2249
     23 C          65.4741   91.4898   13.5070 C.ar    1  UNL1        0.1623
     24 N          65.1910   92.1057   12.1689 N.ar    1  UNL1       -0.2249
     25 C          64.0494   91.6007   11.3373 C.ar    1  UNL1        0.1066
     26 C          66.6157   91.9947   14.3387 C.ar    1  UNL1        0.0358
     27 C          66.3621   92.5201   15.7206 C.ar    1  UNL1        0.0030
     28 C          67.5037   93.0250   16.5522 C.ar    1  UNL1        0.0001
     29 C          68.8990   93.0046   16.0020 C.ar    1  UNL1        0.0000
     30 C          69.1526   92.4793   14.6201 C.ar    1  UNL1        0.0001
     31 C          68.0110   91.9743   13.7885 C.ar    1  UNL1        0.0030
@<TRIPOS>BOND
     1    16    17    1
     2    17    18    2
     3    17    19    2
     4    17     5    1
     5     5     6   ar
     6     6     7   ar
     7     7     8   ar
     8     8    11    1
     9    11    12   ar
    10    12    13   ar
    11    13    14   ar
    12    14    15   ar
    13     8     9   ar
    14     9     1    1
    15     1     2   am
    16     2     3    2
    17     2    20    1
    18    20    21   ar
    19    21    22   ar
    20    22    23   ar
    21    23    26    1
    22    26    27   ar
    23    27    28   ar
    24    28    29   ar
    25    29    30   ar
    26    30    31   ar
    27    23    24   ar
    28    24    25   ar
    29     9    10   ar
    30    10     5   ar
    31    15    11   ar
    32    25    20   ar
    33    31    26   ar
    34     1     4    1
@<TRIPOS>MOLECULE
*****
 31 34 0 0 0
SMALL
GASTEIGER

@<TRIPOS>ATOM
      1 N          61.8569   86.1738   11.5557 N.am    1  UNL1       -0.2791
      2 C          61.9639   86.0159   10.0679 C.2     1  UNL1        0.2526
      3 O          62.7913   84.9068    9.4889 O.2     1  UNL1       -0.2697
      4 H          61.3138   86.9017   11.9357 H       1  UNL1        0.1552
      5 C          63.0624   82.7949   13.2528 C.ar    1  UNL1        0.1071
      6 C          64.0186   83.3201   14.2822 C.ar    1  UNL1        0.0199
      7 C          64.2542   84.7966   14.4028 C.ar    1  UNL1        0.0201
      8 C          63.5337   85.7478   13.4940 C.ar    1  UNL1        0.0790
      9 C          62.5775   85.2226   12.4646 C.ar    1  UNL1        0.0682
     10 C          62.3418   83.7461   12.3440 C.ar    1  UNL1        0.0345
     11 N          63.7694   87.2243   13.6146 N.ar    1  UNL1       -0.2852
     12 C          64.4202   87.9216   14.7723 C.ar    1  UNL1        0.1023
     13 C          64.4487   89.3909   14.4719 C.ar    1  UNL1        0.1196
     14 N          63.8155   89.6017   13.1285 N.ar    1  UNL1       -0.2220
     15 C          63.3957   88.2626   12.5987 C.ar    1  UNL1        0.1829
     16 C          62.5910   79.8420   13.0117 C.3     1  UNL1        0.1816
     17 S          62.8267   81.3184   13.1322 S.O2    1  UNL1        0.0105
     18 O          63.0163   81.4095   11.6471 O.2     1  UNL1       -0.1686
     19 O          62.6370   81.2274   14.6174 O.2     1  UNL1       -0.1686
     20 C          61.2433   86.9671    9.1590 C.ar    1  UNL1        0.0919
     21 C          60.5011   86.4460    7.9642 C.ar    1  UNL1        0.1066
     22 N          59.7806   87.3972    7.0554 N.ar    1  UNL1       -0.2249
     23 C          59.8022   88.8695    7.3414 C.ar    1  UNL1        0.1623
     24 N          60.5444   89.3906    8.5362 N.ar    1  UNL1       -0.2249
     25 C          61.2649   88.4394    9.4450 C.ar    1  UNL1        0.1066
     26 C          59.0816   89.8207    6.4325 C.ar    1  UNL1        0.0358
     27 C          59.8578   90.8104    5.6151 C.ar    1  UNL1        0.0030
     28 C          59.1372   91.7615    4.7062 C.ar    1  UNL1        0.0001
     29 C          57.6405   91.7230    4.6148 C.ar    1  UNL1        0.0000
     30 C          56.8643   90.7334    5.4322 C.ar    1  UNL1        0.0001
     31 C          57.5849   89.7823    6.3411 C.ar    1  UNL1        0.0030
@<TRIPOS>BOND
     1    16    17    1
     2    17    18    2
     3    17    19    2
     4    17     5    1
     5     5     6   ar
     6     6     7   ar
     7     7     8   ar
     8     8    11    1
     9    11    12   ar
    10    12    13   ar
    11    13    14   ar
    12    14    15   ar
    13     8     9   ar
    14     9     1    1
    15     1     2   am
    16     2     3    2
    17     2    20    1
    18    20    21   ar
    19    21    22   ar
    20    22    23   ar
    21    23    26    1
    22    26    27   ar
    23    27    28   ar
    24    28    29   ar
    25    29    30   ar
    26    30    31   ar
    27    23    24   ar
    28    24    25   ar
    29     9    10   ar
    30    10     5   ar
    31    15    11   ar
    32    25    20   ar
    33    31    26   ar
    34     1     4    1
@<TRIPOS>MOLECULE
*****
 31 34 0 0 0
SMALL
GASTEIGER

@<TRIPOS>ATOM
      1 N          61.8725   86.2436   11.6196 N.am    1  UNL1       -0.2791
      2 C          61.9688   86.0602   10.1340 C.2     1  UNL1        0.2526
      3 O          62.7841   84.9353    9.5684 O.2     1  UNL1       -0.2697
      4 H          61.3374   86.9820   11.9907 H       1  UNL1        0.1552
      5 C          63.0673   82.8837   13.3613 C.ar    1  UNL1        0.1071
      6 C          64.0295   83.4191   14.3798 C.ar    1  UNL1        0.0199
      7 C          64.2727   84.8959   14.4784 C.ar    1  UNL1        0.0201
      8 C          63.5537   85.8374   13.5583 C.ar    1  UNL1        0.0790
      9 C          62.5915   85.3021   12.5397 C.ar    1  UNL1        0.0682
     10 C          62.3483   83.8252   12.4412 C.ar    1  UNL1        0.0345
     11 N          63.7969   87.3143   13.6568 N.ar    1  UNL1       -0.2852
     12 C          64.4285   88.0286   14.8148 C.ar    1  UNL1        0.1023
     13 C          64.4732   89.4919   14.4883 C.ar    1  UNL1        0.1196
     14 N          63.8692   89.6821   13.1285 N.ar    1  UNL1       -0.2220
     15 C          63.4513   88.3363   12.6146 C.ar    1  UNL1        0.1829
     16 C          62.5809   79.9300   13.1642 C.3     1  UNL1        0.1816
     17 S          62.8241   81.4068   13.2628 S.O2    1  UNL1        0.0105
     18 O          63.4081   81.4028   11.8811 O.2     1  UNL1       -0.1686
     19 O          62.2401   81.4109   14.6444 O.2     1  UNL1       -0.1686
     20 C          61.2498   87.0018    9.2138 C.ar    1  UNL1        0.0919
     21 C          61.2490   88.4744    9.4987 C.ar    1  UNL1        0.1066
     22 N          60.5300   89.4159    8.5786 N.ar    1  UNL1       -0.2249
     23 C          59.8118   88.8846    7.3736 C.ar    1  UNL1        0.1623
     24 N          59.8126   87.4120    7.0887 N.ar    1  UNL1       -0.2249
     25 C          60.5316   86.4705    8.0088 C.ar    1  UNL1        0.1066
     26 C          59.0928   89.8262    6.4534 C.ar    1  UNL1        0.0358
     27 C          57.5997   89.7573    6.3269 C.ar    1  UNL1        0.0030
     28 C          56.8808   90.6988    5.4068 C.ar    1  UNL1        0.0001
     29 C          57.6549   91.7092    4.6132 C.ar    1  UNL1        0.0000
     30 C          59.1479   91.7781    4.7397 C.ar    1  UNL1        0.0001
     31 C          59.8668   90.8366    5.6598 C.ar    1  UNL1        0.0030
@<TRIPOS>BOND
     1    16    17    1
     2    17    18    2
     3    17    19    2
     4    17     5    1
     5     5     6   ar
     6     6     7   ar
     7     7     8   ar
     8     8    11    1
     9    11    12   ar
    10    12    13   ar
    11    13    14   ar
    12    14    15   ar
    13     8     9   ar
    14     9     1    1
    15     1     2   am
    16     2     3    2
    17     2    20    1
    18    20    21   ar
    19    21    22   ar
    20    22    23   ar
    21    23    26    1
    22    26    27   ar
    23    27    28   ar
    24    28    29   ar
    25    29    30   ar
    26    30    31   ar
    27    23    24   ar
    28    24    25   ar
    29     9    10   ar
    30    10     5   ar
    31    15    11   ar
    32    25    20   ar
    33    31    26   ar
    34     1     4    1
@<TRIPOS>MOLECULE
*****
 31 34 0 0 0
SMALL
GASTEIGER

@<TRIPOS>ATOM
      1 N          71.1937   74.2661   13.8565 N.am    1  UNL1       -0.2791
      2 C          72.3821   75.1748   13.7477 C.2     1  UNL1        0.2526
      3 O          73.5821   74.9477   14.6186 O.2     1  UNL1       -0.2697
      4 H          70.4061   74.4152   13.2849 H       1  UNL1        0.1552
      5 C          71.3406   72.2720   17.2846 C.ar    1  UNL1        0.1071
      6 C          71.2284   70.8585   16.7953 C.ar    1  UNL1        0.0199
      7 C          71.1046   70.5809   15.3264 C.ar    1  UNL1        0.0201
      8 C          71.0930   71.7167   14.3468 C.ar    1  UNL1        0.0790
      9 C          71.2052   73.1302   14.8361 C.ar    1  UNL1        0.0682
     10 C          71.3291   73.4078   16.3050 C.ar    1  UNL1        0.0345
     11 N          70.9692   71.4391   12.8780 N.ar    1  UNL1       -0.2852
     12 C          69.6883   71.2402   12.1231 C.ar    1  UNL1        0.1023
     13 C          70.0320   70.9898   10.6847 C.ar    1  UNL1        0.1196
     14 N          71.5253   71.0340   10.5504 N.ar    1  UNL1       -0.2220
     15 C          72.1045   71.3117   11.9060 C.ar    1  UNL1        0.1829
     16 C          71.5883   72.8272   20.2223 C.3     1  UNL1        0.1816
     17 S          71.4644   72.5496   18.7535 S.O2    1  UNL1        0.0105
     18 O          70.6435   71.3305   19.0531 O.2     1  UNL1       -0.1686
     19 O          72.2854   73.7687   18.4538 O.2     1  UNL1       -0.1686
     20 C          72.3705   76.3108   12.7681 C.ar    1  UNL1        0.0919
     21 C          73.6329   76.7025   12.0590 C.ar    1  UNL1        0.1066
     22 N          73.6213   77.8384   11.0795 N.ar    1  UNL1       -0.2249
     23 C          72.3473   78.5826   10.8090 C.ar    1  UNL1        0.1623
     24 N          71.0849   78.1908   11.5181 N.ar    1  UNL1       -0.2249
     25 C          71.0965   77.0549   12.4977 C.ar    1  UNL1        0.1066
     26 C          72.3358   79.7185    9.8294 C.ar    1  UNL1        0.0358
     27 C          72.1781   81.1281   10.3174 C.ar    1  UNL1        0.0030
     28 C          72.1665   82.2640    9.3378 C.ar    1  UNL1        0.0001
     29 C          72.3127   81.9902    7.8702 C.ar    1  UNL1        0.0000
     30 C          72.4704   80.5806    7.3823 C.ar    1  UNL1        0.0001
     31 C          72.4819   79.4448    8.3619 C.ar    1  UNL1        0.0030
@<TRIPOS>BOND
     1    16    17    1
     2    17    18    2
     3    17    19    2
     4    17     5    1
     5     5     6   ar
     6     6     7   ar
     7     7     8   ar
     8     8    11    1
     9    11    12   ar
    10    12    13   ar
    11    13    14   ar
    12    14    15   ar
    13     8     9   ar
    14     9     1    1
    15     1     2   am
    16     2     3    2
    17     2    20    1
    18    20    21   ar
    19    21    22   ar
    20    22    23   ar
    21    23    26    1
    22    26    27   ar
    23    27    28   ar
    24    28    29   ar
    25    29    30   ar
    26    30    31   ar
    27    23    24   ar
    28    24    25   ar
    29     9    10   ar
    30    10     5   ar
    31    15    11   ar
    32    25    20   ar
    33    31    26   ar
    34     1     4    1
@<TRIPOS>MOLECULE
*****
 31 34 0 0 0
SMALL
GASTEIGER

@<TRIPOS>ATOM
      1 N          63.7112   85.7272   13.1660 N.am    1  UNL1       -0.2791
      2 C          62.8674   86.7994   12.5430 C.2     1  UNL1        0.2526
      3 O          61.4831   86.4797   12.0618 O.2     1  UNL1       -0.2697
      4 H          64.6197   85.9370   13.4818 H       1  UNL1        0.1552
      5 C          62.7785   81.9627   12.3240 C.ar    1  UNL1        0.1071
      6 C          62.0899   81.5510   13.5913 C.ar    1  UNL1        0.0199
      7 C          61.9417   82.5313   14.7170 C.ar    1  UNL1        0.0201
      8 C          62.4821   83.9233   14.5752 C.ar    1  UNL1        0.0790
      9 C          63.1707   84.3351   13.3078 C.ar    1  UNL1        0.0682
     10 C          63.3189   83.3547   12.1822 C.ar    1  UNL1        0.0345
     11 N          62.3339   84.9037   15.7008 N.ar    1  UNL1       -0.2852
     12 C          63.4270   85.3628   16.6198 C.ar    1  UNL1        0.1023
     13 C          62.8353   86.3399   17.5920 C.ar    1  UNL1        0.1196
     14 N          61.3766   86.4846   17.2739 N.ar    1  UNL1       -0.2220
     15 C          61.0667   85.5970   16.1051 C.ar    1  UNL1        0.1829
     16 C          63.0748   80.0020   10.0727 C.3     1  UNL1        0.1816
     17 S          62.9267   80.9824   11.1984 S.O2    1  UNL1        0.0105
     18 O          62.4288   79.8835   12.0898 O.2     1  UNL1       -0.1686
     19 O          63.4245   82.0812   10.3069 O.2     1  UNL1       -0.1686
     20 C          63.4078   88.1915   12.4012 C.ar    1  UNL1        0.0919
     21 C          64.2526   88.7827   13.4906 C.ar    1  UNL1        0.1066
     22 N          64.7931   90.1747   13.3487 N.ar    1  UNL1       -0.2249
     23 C          64.4887   90.9756   12.1175 C.ar    1  UNL1        0.1623
     24 N          63.6439   90.3844   11.0281 N.ar    1  UNL1       -0.2249
     25 C          63.1035   88.9924   11.1700 C.ar    1  UNL1        0.1066
     26 C          65.0291   92.3677   11.9757 C.ar    1  UNL1        0.0358
     27 C          65.7456   93.0146   13.1237 C.ar    1  UNL1        0.0030
     28 C          66.2860   94.4067   12.9819 C.ar    1  UNL1        0.0001
     29 C          66.1100   95.1517   11.6920 C.ar    1  UNL1        0.0000
     30 C          65.3935   94.5048   10.5439 C.ar    1  UNL1        0.0001
     31 C          64.8531   93.1128   10.6858 C.ar    1  UNL1        0.0030
@<TRIPOS>BOND
     1    16    17    1
     2    17    18    2
     3    17    19    2
     4    17     5    1
     5     5     6   ar
     6     6     7   ar
     7     7     8   ar
     8     8    11    1
     9    11    12   ar
    10    12    13   ar
    11    13    14   ar
    12    14    15   ar
    13     8     9   ar
    14     9     1    1
    15     1     2   am
    16     2     3    2
    17     2    20    1
    18    20    21   ar
    19    21    22   ar
    20    22    23   ar
    21    23    26    1
    22    26    27   ar
    23    27    28   ar
    24    28    29   ar
    25    29    30   ar
    26    30    31   ar
    27    23    24   ar
    28    24    25   ar
    29     9    10   ar
    30    10     5   ar
    31    15    11   ar
    32    25    20   ar
    33    31    26   ar
    34     1     4    1
@<TRIPOS>MOLECULE
*****
 31 34 0 0 0
SMALL
GASTEIGER

@<TRIPOS>ATOM
      1 N          65.3504   89.4896   13.3615 N.am    1  UNL1       -0.2791
      2 C          64.3935   88.8615   14.3309 C.2     1  UNL1        0.2526
      3 O          63.8207   89.6752   15.4533 O.2     1  UNL1       -0.2697
      4 H          65.7263   88.9555   12.6249 H       1  UNL1        0.1552
      5 C          67.2037   92.7625   14.6277 C.ar    1  UNL1        0.1071
      6 C          66.5032   93.8151   13.8206 C.ar    1  UNL1        0.0199
      7 C          65.4185   93.4258   12.8605 C.ar    1  UNL1        0.0201
      8 C          65.0343   91.9840   12.7074 C.ar    1  UNL1        0.0790
      9 C          65.7347   90.9315   13.5146 C.ar    1  UNL1        0.0682
     10 C          66.8194   91.3207   14.4747 C.ar    1  UNL1        0.0345
     11 N          63.9496   91.5947   11.7473 N.ar    1  UNL1       -0.2852
     12 C          62.6506   90.9353   12.1047 C.ar    1  UNL1        0.1023
     13 C          61.8716   90.7296   10.8394 C.ar    1  UNL1        0.1196
     14 N          62.6891   91.2619    9.7000 N.ar    1  UNL1       -0.2220
     15 C          63.9734   91.7966   10.2611 C.ar    1  UNL1        0.1829
     16 C          69.3731   93.5410   16.5481 C.3     1  UNL1        0.1816
     17 S          68.2884   93.1518   15.5879 S.O2    1  UNL1        0.0105
     18 O          69.3175   92.9071   14.5244 O.2     1  UNL1       -0.1686
     19 O          67.2592   93.3965   16.6514 O.2     1  UNL1       -0.1686
     20 C          64.0092   87.4196   14.1779 C.ar    1  UNL1        0.0919
     21 C          63.3137   86.9569   12.9321 C.ar    1  UNL1        0.1066
     22 N          62.9294   85.5151   12.7791 N.ar    1  UNL1       -0.2249
     23 C          63.2408   84.5359   13.8720 C.ar    1  UNL1        0.1623
     24 N          63.9363   84.9986   15.1178 N.ar    1  UNL1       -0.2249
     25 C          64.3205   86.4404   15.2708 C.ar    1  UNL1        0.1066
     26 C          62.8565   83.0940   13.7190 C.ar    1  UNL1        0.0358
     27 C          63.5908   82.2214   12.7447 C.ar    1  UNL1        0.0030
     28 C          63.2066   80.7796   12.5917 C.ar    1  UNL1        0.0001
     29 C          62.0879   80.2104   13.4131 C.ar    1  UNL1        0.0000
     30 C          61.3536   81.0829   14.3874 C.ar    1  UNL1        0.0001
     31 C          61.7379   82.5247   14.5403 C.ar    1  UNL1        0.0030
@<TRIPOS>BOND
     1    16    17    1
     2    17    18    2
     3    17    19    2
     4    17     5    1
     5     5     6   ar
     6     6     7   ar
     7     7     8   ar
     8     8    11    1
     9    11    12   ar
    10    12    13   ar
    11    13    14   ar
    12    14    15   ar
    13     8     9   ar
    14     9     1    1
    15     1     2   am
    16     2     3    2
    17     2    20    1
    18    20    21   ar
    19    21    22   ar
    20    22    23   ar
    21    23    26    1
    22    26    27   ar
    23    27    28   ar
    24    28    29   ar
    25    29    30   ar
    26    30    31   ar
    27    23    24   ar
    28    24    25   ar
    29     9    10   ar
    30    10     5   ar
    31    15    11   ar
    32    25    20   ar
    33    31    26   ar
    34     1     4    1
@<TRIPOS>MOLECULE
*****
 31 34 0 0 0
SMALL
GASTEIGER

@<TRIPOS>ATOM
      1 N          64.0312   86.9709   13.6219 N.am    1  UNL1       -0.2791
      2 C          63.2868   87.8915   12.7008 C.2     1  UNL1        0.2526
      3 O          62.0268   87.4264   12.0329 O.2     1  UNL1       -0.2697
      4 H          64.8582   87.2761   14.0602 H       1  UNL1        0.1552
      5 C          63.0231   83.1784   13.0295 C.ar    1  UNL1        0.1071
      6 C          62.4846   82.8138   14.3812 C.ar    1  UNL1        0.0199
      7 C          62.4616   83.8349   15.4797 C.ar    1  UNL1        0.0201
      8 C          62.9771   85.2206   15.2267 C.ar    1  UNL1        0.0790
      9 C          63.5157   85.5852   13.8750 C.ar    1  UNL1        0.0682
     10 C          63.5386   84.5641   12.7764 C.ar    1  UNL1        0.0345
     11 N          62.9542   86.2417   16.3252 N.ar    1  UNL1       -0.2852
     12 C          62.5964   85.9859   17.7593 C.ar    1  UNL1        0.1023
     13 C          62.7060   87.2840   18.5030 C.ar    1  UNL1        0.1196
     14 N          63.1316   88.3420   17.5286 N.ar    1  UNL1       -0.2220
     15 C          63.2849   87.6978   16.1826 C.ar    1  UNL1        0.1829
     16 C          63.0690   81.1363   10.8324 C.3     1  UNL1        0.1816
     17 S          63.0461   82.1573   11.9309 S.O2    1  UNL1        0.0105
     18 O          63.9482   83.0445   11.1252 O.2     1  UNL1       -0.1686
     19 O          62.1439   81.2702   12.7366 O.2     1  UNL1       -0.1686
     20 C          63.8024   89.2772   12.4477 C.ar    1  UNL1        0.0919
     21 C          63.4503   89.9875   11.1743 C.ar    1  UNL1        0.1066
     22 N          63.9659   91.3731   10.9212 N.ar    1  UNL1       -0.2249
     23 C          64.8336   92.0485   11.9415 C.ar    1  UNL1        0.1623
     24 N          65.1856   91.3383   13.2149 N.ar    1  UNL1       -0.2249
     25 C          64.6701   89.9526   13.4680 C.ar    1  UNL1        0.1066
     26 C          65.3492   93.4342   11.6884 C.ar    1  UNL1        0.0358
     27 C          65.1662   94.0681   10.3413 C.ar    1  UNL1        0.0030
     28 C          65.6817   95.4538   10.0882 C.ar    1  UNL1        0.0001
     29 C          66.3803   96.2056   11.1822 C.ar    1  UNL1        0.0000
     30 C          66.5633   95.5717   12.5293 C.ar    1  UNL1        0.0001
     31 C          66.0477   94.1860   12.7824 C.ar    1  UNL1        0.0030
@<TRIPOS>BOND
     1    16    17    1
     2    17    18    2
     3    17    19    2
     4    17     5    1
     5     5     6   ar
     6     6     7   ar
     7     7     8   ar
     8     8    11    1
     9    11    12   ar
    10    12    13   ar
    11    13    14   ar
    12    14    15   ar
    13     8     9   ar
    14     9     1    1
    15     1     2   am
    16     2     3    2
    17     2    20    1
    18    20    21   ar
    19    21    22   ar
    20    22    23   ar
    21    23    26    1
    22    26    27   ar
    23    27    28   ar
    24    28    29   ar
    25    29    30   ar
    26    30    31   ar
    27    23    24   ar
    28    24    25   ar
    29     9    10   ar
    30    10     5   ar
    31    15    11   ar
    32    25    20   ar
    33    31    26   ar
    34     1     4    1
@<TRIPOS>MOLECULE
*****
 31 34 0 0 0
SMALL
GASTEIGER

@<TRIPOS>ATOM
      1 N          59.7133   94.1889   -1.8307 N.am    1  UNL1       -0.2791
      2 C          58.7836   95.2089   -1.2433 C.2     1  UNL1        0.2526
      3 O          59.2181   96.0294   -0.0651 O.2     1  UNL1       -0.2697
      4 H          59.4282   93.6504   -2.6039 H       1  UNL1        0.1552
      5 C          62.5926   93.0986    0.6736 C.ar    1  UNL1        0.1071
      6 C          63.8061   93.5901   -0.0584 C.ar    1  UNL1        0.0199
      7 C          63.6553   94.2812   -1.3812 C.ar    1  UNL1        0.0201
      8 C          62.2911   94.4807   -1.9719 C.ar    1  UNL1        0.0790
      9 C          61.0776   93.9893   -1.2399 C.ar    1  UNL1        0.0682
     10 C          61.2284   93.2982    0.0828 C.ar    1  UNL1        0.0345
     11 N          62.1404   95.1718   -3.2947 N.ar    1  UNL1       -0.2852
     12 C          62.4294   94.5741   -4.6397 C.ar    1  UNL1        0.1023
     13 C          62.1418   95.6148   -5.6810 C.ar    1  UNL1        0.1196
     14 N          61.6750   96.8557   -4.9795 N.ar    1  UNL1       -0.2220
     15 C          61.6741   96.5819   -3.5047 C.ar    1  UNL1        0.1829
     16 C          62.8941   91.7165    3.3191 C.3     1  UNL1        0.1816
     17 S          62.7433   92.4076    1.9964 S.O2    1  UNL1        0.0105
     18 O          64.2336   92.4064    1.8259 O.2     1  UNL1       -0.1686
     19 O          61.2530   92.4087    2.1668 O.2     1  UNL1       -0.1686
     20 C          57.4193   95.4085   -1.8340 C.ar    1  UNL1        0.0919
     21 C          57.0071   94.6315   -3.0491 C.ar    1  UNL1        0.1066
     22 N          55.6429   94.8311   -3.6398 N.ar    1  UNL1       -0.2249
     23 C          54.6908   95.8077   -3.0154 C.ar    1  UNL1        0.1623
     24 N          55.1029   96.5846   -1.8003 N.ar    1  UNL1       -0.2249
     25 C          56.4672   96.3850   -1.2096 C.ar    1  UNL1        0.1066
     26 C          53.3265   96.0072   -3.6062 C.ar    1  UNL1        0.0358
     27 C          53.1667   96.1604   -5.0897 C.ar    1  UNL1        0.0030
     28 C          51.8024   96.3600   -5.6804 C.ar    1  UNL1        0.0001
     29 C          50.5980   96.4064   -4.7875 C.ar    1  UNL1        0.0000
     30 C          50.7578   96.2532   -3.3040 C.ar    1  UNL1        0.0001
     31 C          52.1221   96.0536   -2.7133 C.ar    1  UNL1        0.0030
@<TRIPOS>BOND
     1    16    17    1
     2    17    18    2
     3    17    19    2
     4    17     5    1
     5     5     6   ar
     6     6     7   ar
     7     7     8   ar
     8     8    11    1
     9    11    12   ar
    10    12    13   ar
    11    13    14   ar
    12    14    15   ar
    13     8     9   ar
    14     9     1    1
    15     1     2   am
    16     2     3    2
    17     2    20    1
    18    20    21   ar
    19    21    22   ar
    20    22    23   ar
    21    23    26    1
    22    26    27   ar
    23    27    28   ar
    24    28    29   ar
    25    29    30   ar
    26    30    31   ar
    27    23    24   ar
    28    24    25   ar
    29     9    10   ar
    30    10     5   ar
    31    15    11   ar
    32    25    20   ar
    33    31    26   ar
    34     1     4    1
@<TRIPOS>MOLECULE
*****
 31 34 0 0 0
SMALL
GASTEIGER

@<TRIPOS>ATOM
      1 N          60.2542   95.7006   -1.8002 N.am    1  UNL1       -0.2791
      2 C          59.5139   94.9771   -2.8857 C.2     1  UNL1        0.2526
      3 O          60.2439   94.0227   -3.7837 O.2     1  UNL1       -0.2697
      4 H          59.7750   96.3270   -1.2108 H       1  UNL1        0.1552
      5 C          64.1706   95.7576   -2.4394 C.ar    1  UNL1        0.1071
      6 C          64.6649   95.0085   -1.2376 C.ar    1  UNL1        0.0199
      7 C          63.6889   94.4901   -0.2233 C.ar    1  UNL1        0.0201
      8 C          62.2187   94.7208   -0.4108 C.ar    1  UNL1        0.0790
      9 C          61.7244   95.4699   -1.6126 C.ar    1  UNL1        0.0682
     10 C          62.7004   95.9883   -2.6269 C.ar    1  UNL1        0.0345
     11 N          61.2428   94.2024    0.6035 N.ar    1  UNL1       -0.2852
     12 C          60.5126   92.8939    0.5361 C.ar    1  UNL1        0.1023
     13 C          59.6442   92.7842    1.7542 C.ar    1  UNL1        0.1196
     14 N          59.8378   94.0250    2.5746 N.ar    1  UNL1       -0.2220
     15 C          60.8257   94.9015    1.8634 C.ar    1  UNL1        0.1829
     16 C          66.1224   96.7944   -4.4680 C.3     1  UNL1        0.1816
     17 S          65.1465   96.2760   -3.4537 S.O2    1  UNL1        0.0105
     18 O          65.9858   96.8518   -2.3519 O.2     1  UNL1       -0.1686
     19 O          64.3071   95.7003   -4.5556 O.2     1  UNL1       -0.1686
     20 C          58.0436   95.2078   -3.0733 C.ar    1  UNL1        0.0919
     21 C          57.0584   94.5578   -2.1478 C.ar    1  UNL1        0.1066
     22 N          55.5882   94.7885   -2.3354 N.ar    1  UNL1       -0.2249
     23 C          55.1032   95.6693   -3.4485 C.ar    1  UNL1        0.1623
     24 N          56.0885   96.3193   -4.3741 N.ar    1  UNL1       -0.2249
     25 C          57.5587   96.0885   -4.1865 C.ar    1  UNL1        0.1066
     26 C          53.6330   95.9000   -3.6361 C.ar    1  UNL1        0.0358
     27 C          52.7104   95.8581   -2.4541 C.ar    1  UNL1        0.0030
     28 C          51.2402   96.0888   -2.6418 C.ar    1  UNL1        0.0001
     29 C          50.6926   96.3615   -4.0113 C.ar    1  UNL1        0.0000
     30 C          51.6151   96.4035   -5.1933 C.ar    1  UNL1        0.0001
     31 C          53.0853   96.1727   -5.0057 C.ar    1  UNL1        0.0030
@<TRIPOS>BOND
     1    16    17    1
     2    17    18    2
     3    17    19    2
     4    17     5    1
     5     5     6   ar
     6     6     7   ar
     7     7     8   ar
     8     8    11    1
     9    11    12   ar
    10    12    13   ar
    11    13    14   ar
    12    14    15   ar
    13     8     9   ar
    14     9     1    1
    15     1     2   am
    16     2     3    2
    17     2    20    1
    18    20    21   ar
    19    21    22   ar
    20    22    23   ar
    21    23    26    1
    22    26    27   ar
    23    27    28   ar
    24    28    29   ar
    25    29    30   ar
    26    30    31   ar
    27    23    24   ar
    28    24    25   ar
    29     9    10   ar
    30    10     5   ar
    31    15    11   ar
    32    25    20   ar
    33    31    26   ar
    34     1     4    1
