@<TRIPOS>MOLECULE
*****
 64 71 0 0 0
SMALL
GASTEIGER

@<TRIPOS>ATOM
      1 N          58.6737   95.9125   -5.7678 N.3     1  UNL1       -0.1862
      2 C          59.7206   95.9178   -6.8419 C.3     1  UNL1        0.1775
      3 C          61.1729   95.9876   -6.4734 C.2     1  UNL1        0.2452
      4 O          62.2199   95.9928   -7.5476 O.2     1  UNL1       -0.2732
      5 N          61.5784   96.0520   -5.0307 N.am    1  UNL1       -0.2541
      6 C          63.0307   96.1217   -4.6621 C.3     1  UNL1        0.1577
      7 C          63.4361   96.1862   -3.2194 C.2     1  UNL1        0.2445
      8 O          64.8885   96.2559   -2.8509 O.2     1  UNL1       -0.2731
      9 N          62.3892   96.1809   -2.1452 N.am    1  UNL1       -0.2705
     10 C          60.9368   96.1111   -2.5137 C.3     1  UNL1        0.1359
     11 C          60.5314   96.0467   -3.9565 C.3     1  UNL1        0.1908
     12 N          59.0791   95.9770   -4.3251 N.am    1  UNL1       -0.1863
     13 C          58.0321   95.9717   -3.2508 C.2     1  UNL1        0.3191
     14 O          58.4376   96.0361   -1.8081 O.2     1  UNL1       -0.2512
     15 N          56.5798   95.9019   -3.6193 N.am    1  UNL1       -0.2836
     16 H          56.3137   95.8596   -4.5663 H       1  UNL1        0.1513
     17 C          57.2213   95.8428   -6.1363 C.3     1  UNL1        0.1188
     18 C          55.7852   93.6835   -5.9775 C.2     1  UNL1       -0.0034
     19 C          56.6673   94.6016   -6.7707 C.2     1  UNL1       -0.0071
     20 C          64.0776   96.1270   -5.7363 C.3     1  UNL1        0.0556
     21 C          64.6907   94.8363   -6.1924 C.ar    1  UNL1       -0.0198
     22 C          65.9665   94.8494   -6.9811 C.ar    1  UNL1       -0.0011
     23 C          66.5796   93.5586   -7.4373 C.ar    1  UNL1        0.0363
     24 C          65.9169   92.2548   -7.1048 C.ar    1  UNL1        0.1337
     25 O          66.5299   90.9640   -7.5609 O.3     1  UNL1       -0.5055
     26 C          64.6410   92.2416   -6.3161 C.ar    1  UNL1        0.0363
     27 C          64.0279   93.5323   -5.8599 C.ar    1  UNL1       -0.0011
     28 H          67.3269   90.9722   -8.0536 H       1  UNL1        0.2922
     29 C          62.7946   96.2453   -0.7025 C.3     1  UNL1        0.1217
     30 C          62.7765   95.0029    0.1379 C.ar    1  UNL1        0.0135
     31 C          63.9074   94.0215    0.0500 C.ar    1  UNL1       -0.0012
     32 C          63.8894   92.7791    0.8903 C.ar    1  UNL1       -0.0002
     33 C          62.7404   92.5182    1.8186 C.ar    1  UNL1        0.0015
     34 C          61.6095   93.4997    1.9065 C.ar    1  UNL1        0.0170
     35 C          60.3520   93.5114    2.7241 C.ar    1  UNL1        0.0186
     36 C          59.5929   94.7610    2.3891 C.ar    1  UNL1        0.0759
     37 N          60.3812   95.5215    1.3645 N.ar    1  UNL1       -0.3242
     38 C          59.9916   96.8316    0.7466 C.3     1  UNL1        0.1305
     39 C          61.6275   94.7420    1.0662 C.ar    1  UNL1        0.0575
     40 C          59.9280   92.4583    3.7047 C.ar    1  UNL1        0.0016
     41 C          58.4871   92.3432    4.1054 C.ar    1  UNL1        0.0013
     42 C          58.0632   91.2901    5.0859 C.ar    1  UNL1        0.0147
     43 C          59.0802   90.3522    5.6657 C.ar    1  UNL1        0.0516
     44 C          60.5211   90.4674    5.2650 C.ar    1  UNL1        0.0147
     45 C          60.9450   91.5204    4.2845 C.ar    1  UNL1        0.0013
     46 N          58.6562   89.2992    6.6462 N.am    1  UNL1       -0.2681
     47 C          59.6362   88.7737    7.6530 C.2     1  UNL1        0.3082
     48 O          61.0401   89.3012    7.6793 O.2     1  UNL1       -0.2522
     49 N          59.2121   87.7207    8.6335 N.am    1  UNL1       -0.2681
     50 H          57.7348   88.9530    6.6290 H       1  UNL1        0.1564
     51 H          58.2907   87.3745    8.6162 H       1  UNL1        0.1564
     52 C          60.1921   87.1952    9.6402 C.ar    1  UNL1        0.0516
     53 C          60.9900   85.9618    9.3372 C.ar    1  UNL1        0.0147
     54 C          61.9700   85.4363   10.3439 C.ar    1  UNL1        0.0013
     55 C          62.1520   86.1443   11.6538 C.ar    1  UNL1        0.0001
     56 C          61.3541   87.3778   11.9569 C.ar    1  UNL1        0.0013
     57 C          60.3741   87.9032   10.9500 C.ar    1  UNL1        0.0147
     58 C          55.5329   95.8966   -2.5452 C.3     1  UNL1        0.1177
     59 C          54.0796   95.9422   -2.9140 C.ar    1  UNL1       -0.0025
     60 C          53.6732   96.2508   -4.3245 C.ar    1  UNL1       -0.0026
     61 C          52.2199   96.2964   -4.6933 C.ar    1  UNL1       -0.0003
     62 C          51.1732   96.0335   -3.6517 C.ar    1  UNL1       -0.0000
     63 C          51.5796   95.7248   -2.2411 C.ar    1  UNL1       -0.0003
     64 C          53.0328   95.6792   -1.8723 C.ar    1  UNL1       -0.0026
@<TRIPOS>BOND
     1    18    19    2
     2    19    17    1
     3    17     1    1
     4     1     2    1
     5     2     3    1
     6     3     4    2
     7     3     5   am
     8     5     6    1
     9     6    20    1
    10    20    21    1
    11    21    22   ar
    12    22    23   ar
    13    23    24   ar
    14    24    25    1
    15    24    26   ar
    16    26    27   ar
    17     6     7    1
    18     7     8    2
    19     7     9   am
    20     9    29    1
    21    29    30    1
    22    30    31   ar
    23    31    32   ar
    24    32    33   ar
    25    33    34   ar
    26    34    35   ar
    27    35    40    1
    28    40    41   ar
    29    41    42   ar
    30    42    43   ar
    31    43    46    1
    32    46    47   am
    33    47    48    2
    34    47    49   am
    35    49    52    1
    36    52    53   ar
    37    53    54   ar
    38    54    55   ar
    39    55    56   ar
    40    56    57   ar
    41    43    44   ar
    42    44    45   ar
    43    35    36   ar
    44    36    37   ar
    45    37    38    1
    46    37    39   ar
    47     9    10    1
    48    11    10    1
    49    11    12    1
    50    12    13   am
    51    13    14    2
    52    13    15   am
    53    15    58    1
    54    58    59    1
    55    59    60   ar
    56    60    61   ar
    57    61    62   ar
    58    62    63   ar
    59    63    64   ar
    60    12     1    1
    61    64    59   ar
    62    11     5    1
    63    27    21   ar
    64    39    30   ar
    65    39    34   ar
    66    45    40   ar
    67    57    52   ar
    68    25    28    1
    69    46    50    1
    70    49    51    1
    71    15    16    1
