@<TRIPOS>MOLECULE
*****
 32 35 0 0 0
SMALL
GASTEIGER

@<TRIPOS>ATOM
      1 N          59.7618   88.4609   10.7728 N.pl3   1  UNL1       -0.3039
      2 H          58.8183   88.2769   10.9854 H       1  UNL1        0.1496
      3 C          60.1969   87.5479    7.9484 C.3     1  UNL1        0.1363
      4 N          60.9188   86.8703    9.0753 N.ar    1  UNL1       -0.2669
      5 C          60.7012   87.3267   10.4875 C.ar    1  UNL1        0.2002
      6 N          61.4230   86.6491   11.6144 N.ar    1  UNL1       -0.2150
      7 C          62.3624   85.5150   11.3291 C.ar    1  UNL1        0.0899
      8 C          63.0841   84.8374   12.4559 C.ar    1  UNL1        0.0334
      9 C          64.0235   83.7033   12.1706 C.ar    1  UNL1        0.0430
     10 N          64.7453   83.0256   13.2975 N.pl3   1  UNL1       -0.3570
     11 C          64.2411   83.2468   10.7584 C.ar    1  UNL1        0.0143
     12 C          63.5193   83.9244    9.6316 C.ar    1  UNL1        0.0075
     13 C          62.5799   85.0585    9.9169 C.ar    1  UNL1        0.0740
     14 C          61.8581   85.7362    8.7900 C.ar    1  UNL1        0.2643
     15 O          62.0757   85.2797    7.3778 O.2     1  UNL1       -0.2668
     16 H          64.6025   83.3252   14.2244 H       1  UNL1        0.1424
     17 H          65.3618   82.2813   13.1102 H       1  UNL1        0.1424
     18 C          60.2599   89.8752   10.7342 C.3     1  UNL1        0.0942
     19 C          61.6206   90.1761   10.1792 C.3     1  UNL1        0.0476
     20 C          62.7296   90.5950   11.0983 C.ar    1  UNL1       -0.0205
     21 C          62.8307   90.0000   12.4716 C.ar    1  UNL1       -0.0042
     22 C          63.9397   90.4189   13.3906 C.ar    1  UNL1       -0.0003
     23 C          64.9476   91.4327   12.9364 C.ar    1  UNL1       -0.0000
     24 C          64.8465   92.0276   11.5632 C.ar    1  UNL1       -0.0003
     25 C          63.7375   91.6088   10.6441 C.ar    1  UNL1       -0.0042
     26 C          66.0566   91.8515   13.8555 C.ar    1  UNL1        0.0001
     27 C          67.4706   91.8891   13.3562 C.ar    1  UNL1        0.0023
     28 C          68.5796   92.3080   14.2752 C.ar    1  UNL1        0.0296
     29 C          68.2747   92.6893   15.6936 C.ar    1  UNL1        0.1401
     30 F          69.3837   93.1081   16.6126 F       1  UNL1       -0.2042
     31 C          66.8607   92.6517   16.1929 C.ar    1  UNL1        0.0296
     32 C          65.7517   92.2328   15.2738 C.ar    1  UNL1        0.0023
@<TRIPOS>BOND
     1     3     4    1
     2     4     5   ar
     3     5     1    1
     4     1    18    1
     5    18    19    1
     6    19    20    1
     7    20    21   ar
     8    21    22   ar
     9    22    23   ar
    10    23    26    1
    11    26    27   ar
    12    27    28   ar
    13    28    29   ar
    14    29    30    1
    15    29    31   ar
    16    31    32   ar
    17    23    24   ar
    18    24    25   ar
    19     5     6   ar
    20     6     7   ar
    21     7     8   ar
    22     8     9   ar
    23     9    10    1
    24     9    11   ar
    25    11    12   ar
    26    12    13   ar
    27    13    14   ar
    28    14    15    2
    29    14     4   ar
    30    25    20   ar
    31    13     7   ar
    32    32    26   ar
    33     1     2    1
    34    10    16    1
    35    10    17    1
@<TRIPOS>MOLECULE
*****
 32 35 0 0 0
SMALL
GASTEIGER

@<TRIPOS>ATOM
      1 N          60.1165   87.6837   10.5947 N.pl3   1  UNL1       -0.3039
      2 H          59.2141   87.4776   10.2595 H       1  UNL1        0.1496
      3 C          61.3132   86.3782    8.1732 C.3     1  UNL1        0.1363
      4 N          61.7239   85.9328    9.5455 N.ar    1  UNL1       -0.2669
      5 C          61.1255   86.5855   10.7562 C.ar    1  UNL1        0.2002
      6 N          61.5361   86.1401   12.1284 N.ar    1  UNL1       -0.2150
      7 C          62.5451   85.0419   12.2899 C.ar    1  UNL1        0.0899
      8 C          62.9558   84.5966   13.6621 C.ar    1  UNL1        0.0334
      9 C          63.9647   83.4984   13.8236 C.ar    1  UNL1        0.0430
     10 N          64.3754   83.0530   15.1958 N.pl3   1  UNL1       -0.3570
     11 C          64.5630   82.8457   12.6128 C.ar    1  UNL1        0.0143
     12 C          64.1524   83.2911   11.2406 C.ar    1  UNL1        0.0075
     13 C          63.1435   84.3892   11.0792 C.ar    1  UNL1        0.0740
     14 C          62.7328   84.8346    9.7069 C.ar    1  UNL1        0.2643
     15 O          63.3311   84.1819    8.4961 O.2     1  UNL1       -0.2668
     16 H          63.9827   83.4814   15.9905 H       1  UNL1        0.1424
     17 H          65.0376   82.3323   15.3018 H       1  UNL1        0.1424
     18 C          60.4825   89.0958   10.9439 C.3     1  UNL1        0.0942
     19 C          61.7064   89.7232   10.3453 C.3     1  UNL1        0.0476
     20 C          62.7979   90.2376   11.2365 C.ar    1  UNL1       -0.0205
     21 C          63.0650   89.5738   12.5549 C.ar    1  UNL1       -0.0042
     22 C          64.1563   90.0881   13.4461 C.ar    1  UNL1       -0.0003
     23 C          64.9805   91.2663   13.0190 C.ar    1  UNL1       -0.0000
     24 C          64.7134   91.9302   11.7007 C.ar    1  UNL1       -0.0003
     25 C          63.6221   91.4158   10.8095 C.ar    1  UNL1       -0.0042
     26 C          66.0720   91.7807   13.9103 C.ar    1  UNL1        0.0001
     27 C          67.4852   91.8350   13.4105 C.ar    1  UNL1        0.0023
     28 C          68.5766   92.3494   14.3017 C.ar    1  UNL1        0.0296
     29 C          68.2548   92.8096   15.6927 C.ar    1  UNL1        0.1401
     30 F          69.3462   93.3239   16.5838 F       1  UNL1       -0.2042
     31 C          66.8415   92.7553   16.1924 C.ar    1  UNL1        0.0296
     32 C          65.7501   92.2409   15.3011 C.ar    1  UNL1        0.0023
@<TRIPOS>BOND
     1     3     4    1
     2     4     5   ar
     3     5     1    1
     4     1    18    1
     5    18    19    1
     6    19    20    1
     7    20    21   ar
     8    21    22   ar
     9    22    23   ar
    10    23    26    1
    11    26    27   ar
    12    27    28   ar
    13    28    29   ar
    14    29    30    1
    15    29    31   ar
    16    31    32   ar
    17    23    24   ar
    18    24    25   ar
    19     5     6   ar
    20     6     7   ar
    21     7     8   ar
    22     8     9   ar
    23     9    10    1
    24     9    11   ar
    25    11    12   ar
    26    12    13   ar
    27    13    14   ar
    28    14    15    2
    29    14     4   ar
    30    25    20   ar
    31    13     7   ar
    32    32    26   ar
    33     1     2    1
    34    10    16    1
    35    10    17    1
@<TRIPOS>MOLECULE
*****
 32 35 0 0 0
SMALL
GASTEIGER

@<TRIPOS>ATOM
      1 N          60.0702   88.2265   11.5723 N.pl3   1  UNL1       -0.3039
      2 H          59.0930   88.1822   11.4606 H       1  UNL1        0.1496
      3 C          60.2980   87.8286    8.6076 C.3     1  UNL1        0.1363
      4 N          61.0518   86.9321    9.5447 N.ar    1  UNL1       -0.2669
      5 C          60.9378   87.1311   11.0271 C.ar    1  UNL1        0.2002
      6 N          61.6916   86.2346   11.9643 N.ar    1  UNL1       -0.2150
      7 C          62.5592   85.1392   11.4190 C.ar    1  UNL1        0.0899
      8 C          63.3130   84.2428   12.3562 C.ar    1  UNL1        0.0334
      9 C          64.1806   83.1474   11.8110 C.ar    1  UNL1        0.0430
     10 N          64.9344   82.2509   12.7481 N.pl3   1  UNL1       -0.3570
     11 C          64.2945   82.9484   10.3286 C.ar    1  UNL1        0.0143
     12 C          63.5408   83.8448    9.3914 C.ar    1  UNL1        0.0075
     13 C          62.6732   84.9402    9.9367 C.ar    1  UNL1        0.0740
     14 C          61.9194   85.8367    8.9995 C.ar    1  UNL1        0.2643
     15 O          62.0333   85.6378    7.5171 O.2     1  UNL1       -0.2668
     16 H          64.8596   82.3815   13.7211 H       1  UNL1        0.1424
     17 H          65.5038   81.5319   12.3903 H       1  UNL1        0.1424
     18 C          60.6913   89.3894   12.2877 C.3     1  UNL1        0.0942
     19 C          62.1585   89.3815   12.5992 C.3     1  UNL1        0.0476
     20 C          63.0502   90.4493   12.0382 C.ar    1  UNL1       -0.0205
     21 C          64.1231   91.0560   12.8931 C.ar    1  UNL1       -0.0042
     22 C          65.0148   92.1238   12.3321 C.ar    1  UNL1       -0.0003
     23 C          64.8336   92.5848   10.9163 C.ar    1  UNL1       -0.0000
     24 C          63.7608   91.9780   10.0614 C.ar    1  UNL1       -0.0003
     25 C          62.8691   90.9102   10.6224 C.ar    1  UNL1       -0.0042
     26 C          65.7254   93.6526   10.3553 C.ar    1  UNL1        0.0001
     27 C          65.3265   95.0947   10.4609 C.ar    1  UNL1        0.0023
     28 C          66.2182   96.1625    9.8999 C.ar    1  UNL1        0.0296
     29 C          67.5088   95.7881    9.2332 C.ar    1  UNL1        0.1401
     30 F          68.4004   96.8559    8.6723 F       1  UNL1       -0.2042
     31 C          67.9076   94.3460    9.1276 C.ar    1  UNL1        0.0296
     32 C          67.0159   93.2782    9.6886 C.ar    1  UNL1        0.0023
@<TRIPOS>BOND
     1     3     4    1
     2     4     5   ar
     3     5     1    1
     4     1    18    1
     5    18    19    1
     6    19    20    1
     7    20    21   ar
     8    21    22   ar
     9    22    23   ar
    10    23    26    1
    11    26    27   ar
    12    27    28   ar
    13    28    29   ar
    14    29    30    1
    15    29    31   ar
    16    31    32   ar
    17    23    24   ar
    18    24    25   ar
    19     5     6   ar
    20     6     7   ar
    21     7     8   ar
    22     8     9   ar
    23     9    10    1
    24     9    11   ar
    25    11    12   ar
    26    12    13   ar
    27    13    14   ar
    28    14    15    2
    29    14     4   ar
    30    25    20   ar
    31    13     7   ar
    32    32    26   ar
    33     1     2    1
    34    10    16    1
    35    10    17    1
@<TRIPOS>MOLECULE
*****
 32 35 0 0 0
SMALL
GASTEIGER

@<TRIPOS>ATOM
      1 N          64.4166   87.7635   14.5541 N.pl3   1  UNL1       -0.3039
      2 H          65.3092   88.1142   14.3319 H       1  UNL1        0.1496
      3 C          62.9714   88.0292   11.9386 C.3     1  UNL1        0.1363
      4 N          63.1734   86.6742   12.5496 N.ar    1  UNL1       -0.2669
      5 C          63.8960   86.5413   13.8574 C.ar    1  UNL1        0.2002
      6 N          64.0980   85.1864   14.4684 N.ar    1  UNL1       -0.2150
      7 C          63.5774   83.9643   13.7716 C.ar    1  UNL1        0.0899
      8 C          63.7794   82.6094   14.3826 C.ar    1  UNL1        0.0334
      9 C          63.2588   81.3873   13.6858 C.ar    1  UNL1        0.0430
     10 N          63.4608   80.0323   14.2968 N.pl3   1  UNL1       -0.3570
     11 C          62.5363   81.5202   12.3781 C.ar    1  UNL1        0.0143
     12 C          62.3343   82.8751   11.7671 C.ar    1  UNL1        0.0075
     13 C          62.8548   84.0971   12.4638 C.ar    1  UNL1        0.0740
     14 C          62.6528   85.4521   11.8528 C.ar    1  UNL1        0.2643
     15 O          61.9303   85.5850   10.5451 O.2     1  UNL1       -0.2668
     16 H          63.9351   79.9451   15.1551 H       1  UNL1        0.1424
     17 H          63.1192   79.2302   13.8395 H       1  UNL1        0.1424
     18 C          63.5770   88.4513   15.5895 C.3     1  UNL1        0.0942
     19 C          63.6346   89.9435   15.7313 C.3     1  UNL1        0.0476
     20 C          64.2876   90.7735   14.6661 C.ar    1  UNL1       -0.0205
     21 C          65.6104   91.4290   14.9317 C.ar    1  UNL1       -0.0042
     22 C          66.2634   92.2590   13.8665 C.ar    1  UNL1       -0.0003
     23 C          65.5936   92.4336   12.5358 C.ar    1  UNL1       -0.0000
     24 C          64.2708   91.7781   12.2702 C.ar    1  UNL1       -0.0003
     25 C          63.6178   90.9481   13.3354 C.ar    1  UNL1       -0.0042
     26 C          66.2467   93.2636   11.4706 C.ar    1  UNL1        0.0001
     27 C          67.0615   92.6024   10.3987 C.ar    1  UNL1        0.0023
     28 C          67.7145   93.4323    9.3335 C.ar    1  UNL1        0.0296
     29 C          67.5527   94.9236    9.3401 C.ar    1  UNL1        0.1401
     30 F          68.2057   95.7536    8.2749 F       1  UNL1       -0.2042
     31 C          66.7379   95.5849   10.4120 C.ar    1  UNL1        0.0296
     32 C          66.0849   94.7548   11.4772 C.ar    1  UNL1        0.0023
@<TRIPOS>BOND
     1     3     4    1
     2     4     5   ar
     3     5     1    1
     4     1    18    1
     5    18    19    1
     6    19    20    1
     7    20    21   ar
     8    21    22   ar
     9    22    23   ar
    10    23    26    1
    11    26    27   ar
    12    27    28   ar
    13    28    29   ar
    14    29    30    1
    15    29    31   ar
    16    31    32   ar
    17    23    24   ar
    18    24    25   ar
    19     5     6   ar
    20     6     7   ar
    21     7     8   ar
    22     8     9   ar
    23     9    10    1
    24     9    11   ar
    25    11    12   ar
    26    12    13   ar
    27    13    14   ar
    28    14    15    2
    29    14     4   ar
    30    25    20   ar
    31    13     7   ar
    32    32    26   ar
    33     1     2    1
    34    10    16    1
    35    10    17    1
@<TRIPOS>MOLECULE
*****
 32 35 0 0 0
SMALL
GASTEIGER

@<TRIPOS>ATOM
      1 N          60.2282   90.3142    9.6849 N.pl3   1  UNL1       -0.3039
      2 H          59.5423   91.0096    9.5619 H       1  UNL1        0.1496
      3 C          60.0621   89.3968   12.5364 C.3     1  UNL1        0.1363
      4 N          61.2957   90.0934   12.0433 N.ar    1  UNL1       -0.2669
      5 C          61.3787   90.5521   10.6176 C.ar    1  UNL1        0.2002
      6 N          62.6122   91.2487   10.1245 N.ar    1  UNL1       -0.2150
      7 C          63.7627   91.4867   11.0571 C.ar    1  UNL1        0.0899
      8 C          64.9962   92.1833   10.5640 C.ar    1  UNL1        0.0334
      9 C          66.1467   92.4212   11.4966 C.ar    1  UNL1        0.0430
     10 N          67.3802   93.1179   11.0035 N.pl3   1  UNL1       -0.3570
     11 C          66.0636   91.9626   12.9223 C.ar    1  UNL1        0.0143
     12 C          64.8301   91.2659   13.4155 C.ar    1  UNL1        0.0075
     13 C          63.6797   91.0280   12.4828 C.ar    1  UNL1        0.0740
     14 C          62.4461   90.3314   12.9759 C.ar    1  UNL1        0.2643
     15 O          62.3631   89.8727   14.4017 O.2     1  UNL1       -0.2668
     16 H          67.4348   93.4189   10.0678 H       1  UNL1        0.1424
     17 H          68.1353   93.2740   11.6156 H       1  UNL1        0.1424
     18 C          60.1227   89.0166    8.9398 C.3     1  UNL1        0.0942
     19 C          61.3623   88.2410    8.6053 C.3     1  UNL1        0.0476
     20 C          61.7510   87.0537    9.4355 C.ar    1  UNL1       -0.0205
     21 C          61.2664   86.9368   10.8503 C.ar    1  UNL1       -0.0042
     22 C          61.6551   85.7496   11.6805 C.ar    1  UNL1       -0.0003
     23 C          62.5285   84.6793   11.0960 C.ar    1  UNL1       -0.0000
     24 C          63.0131   84.7962    9.6813 C.ar    1  UNL1       -0.0003
     25 C          62.6244   85.9834    8.8510 C.ar    1  UNL1       -0.0042
     26 C          62.9173   83.4920   11.9263 C.ar    1  UNL1        0.0001
     27 C          63.5282   83.6922   13.2815 C.ar    1  UNL1        0.0023
     28 C          63.9170   82.5050   14.1117 C.ar    1  UNL1        0.0296
     29 C          63.6948   81.1175   13.5868 C.ar    1  UNL1        0.1401
     30 F          64.0836   79.9303   14.4170 F       1  UNL1       -0.2042
     31 C          63.0838   80.9173   12.2315 C.ar    1  UNL1        0.0296
     32 C          62.6951   82.1046   11.4013 C.ar    1  UNL1        0.0023
@<TRIPOS>BOND
     1     3     4    1
     2     4     5   ar
     3     5     1    1
     4     1    18    1
     5    18    19    1
     6    19    20    1
     7    20    21   ar
     8    21    22   ar
     9    22    23   ar
    10    23    26    1
    11    26    27   ar
    12    27    28   ar
    13    28    29   ar
    14    29    30    1
    15    29    31   ar
    16    31    32   ar
    17    23    24   ar
    18    24    25   ar
    19     5     6   ar
    20     6     7   ar
    21     7     8   ar
    22     8     9   ar
    23     9    10    1
    24     9    11   ar
    25    11    12   ar
    26    12    13   ar
    27    13    14   ar
    28    14    15    2
    29    14     4   ar
    30    25    20   ar
    31    13     7   ar
    32    32    26   ar
    33     1     2    1
    34    10    16    1
    35    10    17    1
@<TRIPOS>MOLECULE
*****
 32 35 0 0 0
SMALL
GASTEIGER

@<TRIPOS>ATOM
      1 N          60.5140   90.7651    5.8015 N.pl3   1  UNL1       -0.3039
      2 H          61.0237   90.9554    6.6220 H       1  UNL1        0.1496
      3 C          58.3465   92.1293    4.2391 C.3     1  UNL1        0.1363
      4 N          59.7629   92.1666    3.7468 N.ar    1  UNL1       -0.2669
      5 C          60.8467   91.4845    4.5279 C.ar    1  UNL1        0.2002
      6 N          62.2631   91.5218    4.0356 N.ar    1  UNL1       -0.2150
      7 C          62.5958   92.2412    2.7621 C.ar    1  UNL1        0.0899
      8 C          64.0121   92.2785    2.2698 C.ar    1  UNL1        0.0334
      9 C          64.3448   92.9979    0.9963 C.ar    1  UNL1        0.0430
     10 N          65.7612   93.0353    0.5039 N.pl3   1  UNL1       -0.3570
     11 C          63.2610   93.6800    0.2151 C.ar    1  UNL1        0.0143
     12 C          61.8446   93.6427    0.7075 C.ar    1  UNL1        0.0075
     13 C          61.5120   92.9233    1.9809 C.ar    1  UNL1        0.0740
     14 C          60.0955   92.8860    2.4733 C.ar    1  UNL1        0.2643
     15 O          59.0118   93.5681    1.6921 O.2     1  UNL1       -0.2668
     16 H          66.4725   92.5876    1.0166 H       1  UNL1        0.1424
     17 H          65.9795   93.5074   -0.3319 H       1  UNL1        0.1424
     18 C          59.4047   89.7557    5.8249 C.3     1  UNL1        0.0942
     19 C          58.9205   89.2037    7.1329 C.3     1  UNL1        0.0476
     20 C          59.7726   88.2366    7.9002 C.ar    1  UNL1       -0.0205
     21 C          60.6127   88.7213    9.0445 C.ar    1  UNL1       -0.0042
     22 C          61.4647   87.7543    9.8118 C.ar    1  UNL1       -0.0003
     23 C          61.4768   86.3025    9.4348 C.ar    1  UNL1       -0.0000
     24 C          60.6367   85.8178    8.2906 C.ar    1  UNL1       -0.0003
     25 C          59.7847   86.7848    7.5233 C.ar    1  UNL1       -0.0042
     26 C          62.3288   85.3354   10.2022 C.ar    1  UNL1        0.0001
     27 C          62.2575   85.2977   11.7000 C.ar    1  UNL1        0.0023
     28 C          63.1095   84.3307   12.4673 C.ar    1  UNL1        0.0296
     29 C          64.0330   83.4013   11.7369 C.ar    1  UNL1        0.1401
     30 F          64.8850   82.4343   12.5042 F       1  UNL1       -0.2042
     31 C          64.1043   83.4390   10.2390 C.ar    1  UNL1        0.0296
     32 C          63.2522   84.4061    9.4717 C.ar    1  UNL1        0.0023
@<TRIPOS>BOND
     1     3     4    1
     2     4     5   ar
     3     5     1    1
     4     1    18    1
     5    18    19    1
     6    19    20    1
     7    20    21   ar
     8    21    22   ar
     9    22    23   ar
    10    23    26    1
    11    26    27   ar
    12    27    28   ar
    13    28    29   ar
    14    29    30    1
    15    29    31   ar
    16    31    32   ar
    17    23    24   ar
    18    24    25   ar
    19     5     6   ar
    20     6     7   ar
    21     7     8   ar
    22     8     9   ar
    23     9    10    1
    24     9    11   ar
    25    11    12   ar
    26    12    13   ar
    27    13    14   ar
    28    14    15    2
    29    14     4   ar
    30    25    20   ar
    31    13     7   ar
    32    32    26   ar
    33     1     2    1
    34    10    16    1
    35    10    17    1
@<TRIPOS>MOLECULE
*****
 32 35 0 0 0
SMALL
GASTEIGER

@<TRIPOS>ATOM
      1 N          62.7781   89.8700   16.3200 N.pl3   1  UNL1       -0.3039
      2 H          62.0919   90.3377   16.8487 H       1  UNL1        0.1496
      3 C          65.1534   91.5106   15.5038 C.3     1  UNL1        0.1363
      4 N          64.1721   91.0453   14.4691 N.ar    1  UNL1       -0.2669
      5 C          62.9844   90.2250   14.8772 C.ar    1  UNL1        0.2002
      6 N          62.0031   89.7597   13.8426 N.ar    1  UNL1       -0.2150
      7 C          62.2094   90.1147   12.3998 C.ar    1  UNL1        0.0899
      8 C          61.2281   89.6494   11.3653 C.ar    1  UNL1        0.0334
      9 C          61.4344   90.0045    9.9226 C.ar    1  UNL1        0.0430
     10 N          60.4530   89.5392    8.8879 N.pl3   1  UNL1       -0.3570
     11 C          62.6221   90.8248    9.5145 C.ar    1  UNL1        0.0143
     12 C          63.6034   91.2901   10.5491 C.ar    1  UNL1        0.0075
     13 C          63.3971   90.9350   11.9918 C.ar    1  UNL1        0.0740
     14 C          64.3784   91.4003   13.0265 C.ar    1  UNL1        0.2643
     15 O          65.5661   92.2207   12.6184 O.2     1  UNL1       -0.2668
     16 H          59.6735   89.0008    9.1557 H       1  UNL1        0.1424
     17 H          60.5885   89.7722    7.9410 H       1  UNL1        0.1424
     18 C          63.6173   88.8024   16.9570 C.3     1  UNL1        0.0942
     19 C          63.0354   87.4436   17.2121 C.3     1  UNL1        0.0476
     20 C          63.0803   86.3952   16.1402 C.ar    1  UNL1       -0.0205
     21 C          62.2540   85.1505   16.2736 C.ar    1  UNL1       -0.0042
     22 C          62.2988   84.1021   15.2018 C.ar    1  UNL1       -0.0003
     23 C          63.1699   84.2985   13.9966 C.ar    1  UNL1       -0.0000
     24 C          63.9962   85.5432   13.8632 C.ar    1  UNL1       -0.0003
     25 C          63.9514   86.5916   14.9350 C.ar    1  UNL1       -0.0042
     26 C          63.2148   83.2500   12.9247 C.ar    1  UNL1        0.0001
     27 C          63.9625   83.5113   11.6509 C.ar    1  UNL1        0.0023
     28 C          64.0074   82.4630   10.5790 C.ar    1  UNL1        0.0296
     29 C          63.3045   81.1533   10.7809 C.ar    1  UNL1        0.1401
     30 F          63.3494   80.1050    9.7090 F       1  UNL1       -0.2042
     31 C          62.5567   80.8920   12.0547 C.ar    1  UNL1        0.0296
     32 C          62.5119   81.9404   13.1266 C.ar    1  UNL1        0.0023
@<TRIPOS>BOND
     1     3     4    1
     2     4     5   ar
     3     5     1    1
     4     1    18    1
     5    18    19    1
     6    19    20    1
     7    20    21   ar
     8    21    22   ar
     9    22    23   ar
    10    23    26    1
    11    26    27   ar
    12    27    28   ar
    13    28    29   ar
    14    29    30    1
    15    29    31   ar
    16    31    32   ar
    17    23    24   ar
    18    24    25   ar
    19     5     6   ar
    20     6     7   ar
    21     7     8   ar
    22     8     9   ar
    23     9    10    1
    24     9    11   ar
    25    11    12   ar
    26    12    13   ar
    27    13    14   ar
    28    14    15    2
    29    14     4   ar
    30    25    20   ar
    31    13     7   ar
    32    32    26   ar
    33     1     2    1
    34    10    16    1
    35    10    17    1
@<TRIPOS>MOLECULE
*****
 32 35 0 0 0
SMALL
GASTEIGER

@<TRIPOS>ATOM
      1 N          64.7199   87.3187   14.6439 N.pl3   1  UNL1       -0.3039
      2 H          65.6594   87.4030   14.9257 H       1  UNL1        0.1496
      3 C          63.2285   86.0965   16.9422 C.3     1  UNL1        0.1363
      4 N          63.3538   85.3496   15.6473 N.ar    1  UNL1       -0.2669
      5 C          64.0995   85.9608   14.4982 C.ar    1  UNL1        0.2002
      6 N          64.2248   85.2140   13.2034 N.ar    1  UNL1       -0.2150
      7 C          63.6045   83.8560   13.0576 C.ar    1  UNL1        0.0899
      8 C          63.7298   83.1093   11.7628 C.ar    1  UNL1        0.0334
      9 C          63.1094   81.7514   11.6171 C.ar    1  UNL1        0.0430
     10 N          63.2347   81.0045   10.3223 N.pl3   1  UNL1       -0.3570
     11 C          62.3637   81.1403   12.7663 C.ar    1  UNL1        0.0143
     12 C          62.2384   81.8870   14.0611 C.ar    1  UNL1        0.0075
     13 C          62.8588   83.2449   14.2068 C.ar    1  UNL1        0.0740
     14 C          62.7335   83.9918   15.5016 C.ar    1  UNL1        0.2643
     15 O          61.9878   83.3807   16.6508 O.2     1  UNL1       -0.2668
     16 H          63.7241   81.4056    9.5681 H       1  UNL1        0.1424
     17 H          62.8275   80.1133   10.2267 H       1  UNL1        0.1424
     18 C          63.9088   88.5482   14.3603 C.3     1  UNL1        0.0942
     19 C          64.3986   89.8911   14.8147 C.3     1  UNL1        0.0476
     20 C          64.9010   90.8855   13.8103 C.ar    1  UNL1       -0.0205
     21 C          66.1822   91.6239   14.0620 C.ar    1  UNL1       -0.0042
     22 C          66.6846   92.6182   13.0577 C.ar    1  UNL1       -0.0003
     23 C          65.9058   92.8743   11.8016 C.ar    1  UNL1       -0.0000
     24 C          64.6246   92.1359   11.5498 C.ar    1  UNL1       -0.0003
     25 C          64.1222   91.1416   12.5542 C.ar    1  UNL1       -0.0042
     26 C          66.4081   93.8687   10.7971 C.ar    1  UNL1        0.0001
     27 C          67.2515   93.4098    9.6447 C.ar    1  UNL1        0.0023
     28 C          67.7539   94.4042    8.6403 C.ar    1  UNL1        0.0296
     29 C          67.4129   95.8574    8.7883 C.ar    1  UNL1        0.1401
     30 F          67.9153   96.8518    7.7838 F       1  UNL1       -0.2042
     31 C          66.5695   96.3163    9.9407 C.ar    1  UNL1        0.0296
     32 C          66.0671   95.3218   10.9452 C.ar    1  UNL1        0.0023
@<TRIPOS>BOND
     1     3     4    1
     2     4     5   ar
     3     5     1    1
     4     1    18    1
     5    18    19    1
     6    19    20    1
     7    20    21   ar
     8    21    22   ar
     9    22    23   ar
    10    23    26    1
    11    26    27   ar
    12    27    28   ar
    13    28    29   ar
    14    29    30    1
    15    29    31   ar
    16    31    32   ar
    17    23    24   ar
    18    24    25   ar
    19     5     6   ar
    20     6     7   ar
    21     7     8   ar
    22     8     9   ar
    23     9    10    1
    24     9    11   ar
    25    11    12   ar
    26    12    13   ar
    27    13    14   ar
    28    14    15    2
    29    14     4   ar
    30    25    20   ar
    31    13     7   ar
    32    32    26   ar
    33     1     2    1
    34    10    16    1
    35    10    17    1
@<TRIPOS>MOLECULE
*****
 32 35 0 0 0
SMALL
GASTEIGER

@<TRIPOS>ATOM
      1 N          64.6597   89.4301   14.9320 N.pl3   1  UNL1       -0.3039
      2 H          65.6128   89.6588   15.0240 H       1  UNL1        0.1496
      3 C          63.0342   88.7724   17.3662 C.3     1  UNL1        0.1363
      4 N          63.3872   87.6932   16.3860 N.ar    1  UNL1       -0.2669
      5 C          64.1999   88.0221   15.1689 C.ar    1  UNL1        0.2002
      6 N          64.5529   86.9429   14.1887 N.ar    1  UNL1       -0.2150
      7 C          64.0931   85.5349   14.4255 C.ar    1  UNL1        0.0899
      8 C          64.4461   84.4557   13.4453 C.ar    1  UNL1        0.0334
      9 C          63.9863   83.0478   13.6822 C.ar    1  UNL1        0.0430
     10 N          64.3393   81.9685   12.7020 N.pl3   1  UNL1       -0.3570
     11 C          63.1736   82.7189   14.8993 C.ar    1  UNL1        0.0143
     12 C          62.8206   83.7980   15.8796 C.ar    1  UNL1        0.0075
     13 C          63.2804   85.2060   15.6426 C.ar    1  UNL1        0.0740
     14 C          62.9274   86.2852   16.6229 C.ar    1  UNL1        0.2643
     15 O          62.1147   85.9564   17.8400 O.2     1  UNL1       -0.2668
     16 H          64.8727   82.1843   11.9032 H       1  UNL1        0.1424
     17 H          64.0375   81.0444   12.8575 H       1  UNL1        0.1424
     18 C          63.6672   90.4897   14.5549 C.3     1  UNL1        0.0942
     19 C          63.5251   90.9081   13.1215 C.3     1  UNL1        0.0476
     20 C          63.1215   89.9033   12.0834 C.ar    1  UNL1       -0.0205
     21 C          62.7480   90.3588   10.7039 C.ar    1  UNL1       -0.0042
     22 C          62.3444   89.3541    9.6658 C.ar    1  UNL1       -0.0003
     23 C          62.3144   87.8938   10.0073 C.ar    1  UNL1       -0.0000
     24 C          62.6879   87.4383   11.3867 C.ar    1  UNL1       -0.0003
     25 C          63.0914   88.4430   12.4248 C.ar    1  UNL1       -0.0042
     26 C          61.9108   86.8890    8.9692 C.ar    1  UNL1        0.0001
     27 C          60.5164   86.9006    8.4164 C.ar    1  UNL1        0.0023
     28 C          60.1128   85.8958    7.3783 C.ar    1  UNL1        0.0296
     29 C          61.1036   84.8795    6.8930 C.ar    1  UNL1        0.1401
     30 F          60.6999   83.8747    5.8550 F       1  UNL1       -0.2042
     31 C          62.4979   84.8679    7.4458 C.ar    1  UNL1        0.0296
     32 C          62.9015   85.8727    8.4839 C.ar    1  UNL1        0.0023
@<TRIPOS>BOND
     1     3     4    1
     2     4     5   ar
     3     5     1    1
     4     1    18    1
     5    18    19    1
     6    19    20    1
     7    20    21   ar
     8    21    22   ar
     9    22    23   ar
    10    23    26    1
    11    26    27   ar
    12    27    28   ar
    13    28    29   ar
    14    29    30    1
    15    29    31   ar
    16    31    32   ar
    17    23    24   ar
    18    24    25   ar
    19     5     6   ar
    20     6     7   ar
    21     7     8   ar
    22     8     9   ar
    23     9    10    1
    24     9    11   ar
    25    11    12   ar
    26    12    13   ar
    27    13    14   ar
    28    14    15    2
    29    14     4   ar
    30    25    20   ar
    31    13     7   ar
    32    32    26   ar
    33     1     2    1
    34    10    16    1
    35    10    17    1
