@<TRIPOS>MOLECULE
*****
 31 34 0 0 0
SMALL
GASTEIGER

@<TRIPOS>ATOM
      1 C          64.4649   90.7991   13.1255 C.3     1  UNL1        0.2238
      2 N          65.5442   91.2761   14.0515 N.pl3   1  UNL1       -0.2150
      3 C          66.3656   92.2959   13.3197 C.2     1  UNL1        0.3732
      4 N          67.5506   93.0330   13.8696 N.2     1  UNL1       -0.1329
      5 N          65.7938   92.4491   11.9414 N.am    1  UNL1       -0.1486
      6 C          64.6191   91.5241   11.8214 C.2     1  UNL1        0.3256
      7 O          63.7511   91.3539   10.6100 O.2     1  UNL1       -0.2524
      8 H          65.6883   90.9731   14.9771 H       1  UNL1        0.2462
      9 H          67.8518   92.8629   14.7913 H       1  UNL1        0.3058
     10 C          60.9777   88.8272   11.0759 C.ar    1  UNL1        0.1387
     11 C          60.8226   90.1958   11.6697 C.ar    1  UNL1        0.0367
     12 C          61.9850   90.8531   12.3529 C.ar    1  UNL1        0.0026
     13 C          63.3025   90.1418   12.4423 C.ar    1  UNL1        0.0221
     14 C          63.4577   88.7732   11.8485 C.ar    1  UNL1        0.0026
     15 C          62.2953   88.1159   11.1652 C.ar    1  UNL1        0.0367
     16 C          60.0517   87.2324    9.2459 C.3     1  UNL1        0.2525
     17 O          59.8153   88.1699   10.3927 O.3     1  UNL1       -0.4714
     18 C          64.0677   89.9367   14.2868 C.ar    1  UNL1        0.0221
     19 C          64.3170   88.4583   14.2429 C.ar    1  UNL1        0.0026
     20 C          63.9198   87.5959   15.4041 C.ar    1  UNL1        0.0367
     21 C          63.2732   88.2120   16.6093 C.ar    1  UNL1        0.1387
     22 C          63.0239   89.6904   16.6532 C.ar    1  UNL1        0.0367
     23 C          63.4211   90.5528   15.4919 C.ar    1  UNL1        0.0026
     24 O          62.8760   87.3496   17.7705 O.3     1  UNL1       -0.4714
     25 C          62.4438   85.9320   17.5387 C.3     1  UNL1        0.2525
     26 C          66.3067   93.3664   10.8711 C.3     1  UNL1        0.1410
     27 C          65.7482   94.7524   10.7403 C.3     1  UNL1        0.0377
     28 C          66.2611   95.6697    9.6701 C.3     1  UNL1        0.0033
     29 C          67.3324   95.2011    8.7305 C.3     1  UNL1        0.0002
     30 C          67.8908   93.8151    8.8614 C.3     1  UNL1        0.0033
     31 C          67.3780   92.8977    9.9317 C.3     1  UNL1        0.0377
@<TRIPOS>BOND
     1    16    17    1
     2    17    10    1
     3    10    11   ar
     4    11    12   ar
     5    12    13   ar
     6    13     1    1
     7     1    18    1
     8    18    19   ar
     9    19    20   ar
    10    20    21   ar
    11    21    24    1
    12    24    25    1
    13    21    22   ar
    14    22    23   ar
    15     1     2    1
    16     2     3    1
    17     3     4    2
    18     3     5    1
    19     5    26    1
    20    26    27    1
    21    27    28    1
    22    28    29    1
    23    29    30    1
    24    30    31    1
    25     5     6   am
    26     6     7    2
    27    13    14   ar
    28    14    15   ar
    29    15    10   ar
    30     6     1    1
    31    23    18   ar
    32    31    26    1
    33     2     8    1
    34     4     9    1
@<TRIPOS>MOLECULE
*****
 31 34 0 0 0
SMALL
GASTEIGER

@<TRIPOS>ATOM
      1 C          62.8585   86.8090   12.2617 C.3     1  UNL1        0.2238
      2 N          63.8638   86.6976   13.3695 N.pl3   1  UNL1       -0.2150
      3 C          63.9295   85.2600   13.7927 C.2     1  UNL1        0.3732
      4 N          64.8060   84.6980   14.8725 N.2     1  UNL1       -0.1329
      5 N          62.9650   84.4830   12.9466 N.am    1  UNL1       -0.1486
      6 C          62.3030   85.4404   12.0004 C.2     1  UNL1        0.3256
      7 O          61.2675   85.0906   10.9732 O.2     1  UNL1       -0.2524
      8 H          64.3883   87.4379   13.7516 H       1  UNL1        0.2462
      9 H          65.4094   85.2915   15.3754 H       1  UNL1        0.3058
     10 C          60.0693   88.0565    8.9581 C.ar    1  UNL1        0.1387
     11 C          59.6914   88.2971   10.3896 C.ar    1  UNL1        0.0367
     12 C          60.6212   87.8813   11.4908 C.ar    1  UNL1        0.0026
     13 C          61.9288   87.2249   11.1605 C.ar    1  UNL1        0.0221
     14 C          62.3067   86.9843    9.7290 C.ar    1  UNL1        0.0026
     15 C          61.3770   87.4001    8.6278 C.ar    1  UNL1        0.0367
     16 C          59.6138   89.4149    6.7908 C.3     1  UNL1        0.2525
     17 O          59.1396   88.4723    7.8569 O.3     1  UNL1       -0.4714
     18 C          63.2197   88.2646   12.2929 C.ar    1  UNL1        0.0221
     19 C          63.8157   88.8631   13.5324 C.ar    1  UNL1        0.0026
     20 C          64.1767   90.3186   13.5636 C.ar    1  UNL1        0.0367
     21 C          63.9419   91.1756   12.3552 C.ar    1  UNL1        0.1387
     22 C          63.3459   90.5772   11.1156 C.ar    1  UNL1        0.0367
     23 C          62.9848   89.1216   11.0845 C.ar    1  UNL1        0.0026
     24 O          64.3030   92.6312   12.3863 O.3     1  UNL1       -0.4714
     25 C          65.7240   93.0564   12.1624 C.3     1  UNL1        0.2525
     26 C          62.7075   83.0078   13.0317 C.3     1  UNL1        0.1410
     27 C          62.0064   82.4366   14.2284 C.3     1  UNL1        0.0377
     28 C          61.7490   80.9614   14.3137 C.3     1  UNL1        0.0033
     29 C          62.1926   80.0571   13.2021 C.3     1  UNL1        0.0002
     30 C          62.8937   80.6283   12.0053 C.3     1  UNL1        0.0033
     31 C          63.1512   82.1036   11.9201 C.3     1  UNL1        0.0377
@<TRIPOS>BOND
     1    16    17    1
     2    17    10    1
     3    10    11   ar
     4    11    12   ar
     5    12    13   ar
     6    13     1    1
     7     1    18    1
     8    18    19   ar
     9    19    20   ar
    10    20    21   ar
    11    21    24    1
    12    24    25    1
    13    21    22   ar
    14    22    23   ar
    15     1     2    1
    16     2     3    1
    17     3     4    2
    18     3     5    1
    19     5    26    1
    20    26    27    1
    21    27    28    1
    22    28    29    1
    23    29    30    1
    24    30    31    1
    25     5     6   am
    26     6     7    2
    27    13    14   ar
    28    14    15   ar
    29    15    10   ar
    30     6     1    1
    31    23    18   ar
    32    31    26    1
    33     2     8    1
    34     4     9    1
@<TRIPOS>MOLECULE
*****
 31 34 0 0 0
SMALL
GASTEIGER

@<TRIPOS>ATOM
      1 C          65.4256   91.8028   12.6082 C.3     1  UNL1        0.2238
      2 N          65.0248   90.9387   13.7670 N.pl3   1  UNL1       -0.2150
      3 C          63.8124   90.1536   13.3621 C.2     1  UNL1        0.3732
      4 N          63.0775   89.1635   14.2163 N.2     1  UNL1       -0.1329
      5 N          63.4640   90.5325   11.9532 N.am    1  UNL1       -0.1486
      6 C          64.4610   91.5517   11.4873 C.2     1  UNL1        0.3256
      7 O          64.4886   92.2052   10.1374 O.2     1  UNL1       -0.2524
      8 H          65.4778   90.8946   14.6399 H       1  UNL1        0.2462
      9 H          63.3846   88.9813   15.1337 H       1  UNL1        0.3058
     10 C          67.3158   94.6782    9.7083 C.ar    1  UNL1        0.1387
     11 C          67.6320   93.2142    9.6267 C.ar    1  UNL1        0.0367
     12 C          67.0019   92.2557   10.5933 C.ar    1  UNL1        0.0026
     13 C          66.0557   92.7612   11.6416 C.ar    1  UNL1        0.0221
     14 C          65.7395   94.2252   11.7233 C.ar    1  UNL1        0.0026
     15 C          66.3696   95.1837   10.7567 C.ar    1  UNL1        0.0367
     16 C          67.1903   96.8509    8.2893 C.3     1  UNL1        0.2525
     17 O          67.9458   95.6366    8.7417 O.3     1  UNL1       -0.4714
     18 C          66.5219   92.2542   13.5271 C.ar    1  UNL1        0.0221
     19 C          66.2042   93.1395   14.6956 C.ar    1  UNL1        0.0026
     20 C          67.3005   93.5909   15.6145 C.ar    1  UNL1        0.0367
     21 C          68.7145   93.1571   15.3648 C.ar    1  UNL1        0.1387
     22 C          69.0323   92.2719   14.1964 C.ar    1  UNL1        0.0367
     23 C          67.9359   91.8204   13.2775 C.ar    1  UNL1        0.0026
     24 O          69.8108   93.6085   16.2837 O.3     1  UNL1       -0.4714
     25 C          70.6472   94.8008   15.9244 C.3     1  UNL1        0.2525
     26 C          62.3195   89.9877   11.1511 C.3     1  UNL1        0.1410
     27 C          60.9962   90.6940   11.1571 C.3     1  UNL1        0.0377
     28 C          59.8517   90.1493   10.3550 C.3     1  UNL1        0.0033
     29 C          60.0305   88.8983    9.5468 C.3     1  UNL1        0.0002
     30 C          61.3538   88.1920    9.5409 C.3     1  UNL1        0.0033
     31 C          62.4984   88.7367   10.3430 C.3     1  UNL1        0.0377
@<TRIPOS>BOND
     1    16    17    1
     2    17    10    1
     3    10    11   ar
     4    11    12   ar
     5    12    13   ar
     6    13     1    1
     7     1    18    1
     8    18    19   ar
     9    19    20   ar
    10    20    21   ar
    11    21    24    1
    12    24    25    1
    13    21    22   ar
    14    22    23   ar
    15     1     2    1
    16     2     3    1
    17     3     4    2
    18     3     5    1
    19     5    26    1
    20    26    27    1
    21    27    28    1
    22    28    29    1
    23    29    30    1
    24    30    31    1
    25     5     6   am
    26     6     7    2
    27    13    14   ar
    28    14    15   ar
    29    15    10   ar
    30     6     1    1
    31    23    18   ar
    32    31    26    1
    33     2     8    1
    34     4     9    1
@<TRIPOS>MOLECULE
*****
 31 34 0 0 0
SMALL
GASTEIGER

@<TRIPOS>ATOM
      1 C          63.2921   85.3738   12.6318 C.3     1  UNL1        0.2238
      2 N          63.9797   84.8109   13.8402 N.pl3   1  UNL1       -0.2150
      3 C          64.3345   85.9530   14.7457 C.2     1  UNL1        0.3732
      4 N          65.0347   85.8453   16.0678 N.2     1  UNL1       -0.1329
      5 N          63.8662   87.2217   14.0968 N.am    1  UNL1       -0.1486
      6 C          63.2220   86.8638   12.7903 C.2     1  UNL1        0.3256
      7 O          62.6143   87.8267   11.8139 O.2     1  UNL1       -0.2524
      8 H          64.1655   83.8590   14.0094 H       1  UNL1        0.2462
      9 H          65.3044   84.9631   16.4116 H       1  UNL1        0.3058
     10 C          61.1811   86.1625    8.7367 C.ar    1  UNL1        0.1387
     11 C          62.5831   85.6294    8.7354 C.ar    1  UNL1        0.0367
     12 C          63.2868   85.3665   10.0337 C.ar    1  UNL1        0.0026
     13 C          62.5884   85.6367   11.3334 C.ar    1  UNL1        0.0221
     14 C          61.1864   86.1698   11.3348 C.ar    1  UNL1        0.0026
     15 C          60.4827   86.4327   10.0364 C.ar    1  UNL1        0.0367
     16 C          59.0478   86.8796    7.4387 C.3     1  UNL1        0.2525
     17 O          60.4774   86.4254    7.4384 O.3     1  UNL1       -0.4714
     18 C          63.2152   83.9388   12.2018 C.ar    1  UNL1        0.0221
     19 C          64.1104   83.4343   11.1090 C.ar    1  UNL1        0.0026
     20 C          64.0334   81.9994   10.6791 C.ar    1  UNL1        0.0367
     21 C          63.0613   81.0689   11.3418 C.ar    1  UNL1        0.1387
     22 C          62.1661   81.5734   12.4345 C.ar    1  UNL1        0.0367
     23 C          62.2431   83.0084   12.8645 C.ar    1  UNL1        0.0026
     24 O          62.9843   79.6339   10.9118 O.3     1  UNL1       -0.4714
     25 C          62.7062   79.2947    9.4773 C.3     1  UNL1        0.2525
     26 C          64.0159   88.6054   14.6562 C.3     1  UNL1        0.1410
     27 C          63.4188   88.9438   15.9900 C.3     1  UNL1        0.0377
     28 C          63.5684   90.3274   16.5495 C.3     1  UNL1        0.0033
     29 C          64.3151   91.3729   15.7751 C.3     1  UNL1        0.0002
     30 C          64.9122   91.0345   14.4413 C.3     1  UNL1        0.0033
     31 C          64.7626   89.6508   13.8818 C.3     1  UNL1        0.0377
@<TRIPOS>BOND
     1    16    17    1
     2    17    10    1
     3    10    11   ar
     4    11    12   ar
     5    12    13   ar
     6    13     1    1
     7     1    18    1
     8    18    19   ar
     9    19    20   ar
    10    20    21   ar
    11    21    24    1
    12    24    25    1
    13    21    22   ar
    14    22    23   ar
    15     1     2    1
    16     2     3    1
    17     3     4    2
    18     3     5    1
    19     5    26    1
    20    26    27    1
    21    27    28    1
    22    28    29    1
    23    29    30    1
    24    30    31    1
    25     5     6   am
    26     6     7    2
    27    13    14   ar
    28    14    15   ar
    29    15    10   ar
    30     6     1    1
    31    23    18   ar
    32    31    26    1
    33     2     8    1
    34     4     9    1
@<TRIPOS>MOLECULE
*****
 31 34 0 0 0
SMALL
GASTEIGER

@<TRIPOS>ATOM
      1 C          62.6423   86.9753   10.8457 C.3     1  UNL1        0.2238
      2 N          62.3405   88.2412   10.0998 N.pl3   1  UNL1       -0.2150
      3 C          62.6639   89.3974   10.9991 C.2     1  UNL1        0.3732
      4 N          62.5122   90.8499   10.6568 N.2     1  UNL1       -0.1329
      5 N          63.1656   88.8460   12.3007 N.am    1  UNL1       -0.1486
      6 C          63.1523   87.3491   12.2059 C.2     1  UNL1        0.3256
      7 O          63.5748   86.3937   13.2824 O.2     1  UNL1       -0.2524
      8 H          61.9914   88.3025    9.1813 H       1  UNL1        0.2462
      9 H          62.1725   91.1141    9.7714 H       1  UNL1        0.3058
     10 C          63.2549   82.7588   12.2935 C.ar    1  UNL1        0.1387
     11 C          64.1069   83.3025   11.1852 C.ar    1  UNL1        0.0367
     12 C          63.9027   84.7080   10.7026 C.ar    1  UNL1        0.0026
     13 C          62.8465   85.5698   11.3283 C.ar    1  UNL1        0.0221
     14 C          61.9944   85.0261   12.4366 C.ar    1  UNL1        0.0026
     15 C          62.1986   83.6206   12.9192 C.ar    1  UNL1        0.0367
     16 C          62.3389   80.6238   13.4565 C.3     1  UNL1        0.2525
     17 O          63.4590   81.3533   12.7761 O.3     1  UNL1       -0.4714
     18 C          62.1750   86.3077    9.5863 C.ar    1  UNL1        0.0221
     19 C          60.7205   86.3305    9.2206 C.ar    1  UNL1        0.0026
     20 C          60.2532   85.6629    7.9613 C.ar    1  UNL1        0.0367
     21 C          61.2405   84.9724    7.0677 C.ar    1  UNL1        0.1387
     22 C          62.6950   84.9495    7.4334 C.ar    1  UNL1        0.0367
     23 C          63.1623   85.6172    8.6927 C.ar    1  UNL1        0.0026
     24 O          60.7732   84.3048    5.8084 O.3     1  UNL1       -0.4714
     25 C          61.7343   84.0763    4.6796 C.3     1  UNL1        0.2525
     26 C          63.6038   89.6504   13.4886 C.3     1  UNL1        0.1410
     27 C          64.6581   90.7058   13.3321 C.3     1  UNL1        0.0377
     28 C          65.0963   91.5102   14.5198 C.3     1  UNL1        0.0033
     29 C          64.4801   91.2593   15.8643 C.3     1  UNL1        0.0002
     30 C          63.4258   90.2039   16.0208 C.3     1  UNL1        0.0033
     31 C          62.9875   89.3994   14.8329 C.3     1  UNL1        0.0377
@<TRIPOS>BOND
     1    16    17    1
     2    17    10    1
     3    10    11   ar
     4    11    12   ar
     5    12    13   ar
     6    13     1    1
     7     1    18    1
     8    18    19   ar
     9    19    20   ar
    10    20    21   ar
    11    21    24    1
    12    24    25    1
    13    21    22   ar
    14    22    23   ar
    15     1     2    1
    16     2     3    1
    17     3     4    2
    18     3     5    1
    19     5    26    1
    20    26    27    1
    21    27    28    1
    22    28    29    1
    23    29    30    1
    24    30    31    1
    25     5     6   am
    26     6     7    2
    27    13    14   ar
    28    14    15   ar
    29    15    10   ar
    30     6     1    1
    31    23    18   ar
    32    31    26    1
    33     2     8    1
    34     4     9    1
