@<TRIPOS>MOLECULE
*****
 48 53 0 0 0
SMALL
GASTEIGER

@<TRIPOS>ATOM
      1 N          60.3244   89.5100    7.3486 N.am    1  UNL1       -0.2964
      2 C          59.2358   89.8530    6.3754 C.2     1  UNL1        0.2461
      3 O          57.8879   89.2066    6.4993 O.2     1  UNL1       -0.2701
      4 H          61.2090   89.9343    7.2673 H       1  UNL1        0.1501
      5 C          59.4949   90.8426    5.2783 C.ar    1  UNL1        0.0548
      6 C          58.3716   91.6802    4.7430 C.ar    1  UNL1        0.0046
      7 C          58.6309   92.6697    3.6459 C.ar    1  UNL1        0.0013
      8 C          60.0134   92.8216    3.0841 C.ar    1  UNL1        0.0133
      9 C          60.5677   93.7072    2.0077 C.ar    1  UNL1       -0.0023
     10 C          62.0335   93.4169    1.8778 C.ar    1  UNL1        0.0922
     11 N          62.3852   92.3519    2.8739 N.ar    1  UNL1       -0.3230
     12 C          63.7464   91.7589    3.0870 C.3     1  UNL1        0.1305
     13 C          61.1366   91.9840    3.6194 C.ar    1  UNL1        0.0598
     14 C          60.8774   90.9945    4.7165 C.ar    1  UNL1        0.0217
     15 C          62.9814   94.0759    0.9200 C.ar    1  UNL1        0.1781
     16 N          63.9917   95.0632    1.4245 N.ar    1  UNL1       -0.2229
     17 C          64.9395   95.7222    0.4668 C.ar    1  UNL1        0.1135
     18 C          64.8771   95.3938   -0.9954 C.ar    1  UNL1        0.0959
     19 CL         65.8250   96.0528   -1.9532 Cl      1  UNL1       -0.0790
     20 C          63.8669   94.4065   -1.5000 C.ar    1  UNL1        0.1135
     21 N          62.9190   93.7475   -0.5423 N.ar    1  UNL1       -0.2229
     22 C          59.7922   94.7074    1.2026 C.3     1  UNL1        0.0239
     23 C          59.8415   96.1979    1.3643 C.3     1  UNL1        0.0044
     24 C          58.9111   96.8045    0.3562 C.3     1  UNL1        0.0003
     25 C          58.2868   95.6890   -0.4286 C.3     1  UNL1        0.0003
     26 C          58.8314   94.3929    0.0945 C.3     1  UNL1        0.0044
     27 C          60.0652   88.5204    8.4458 C.3     1  UNL1        0.1260
     28 C          59.2759   87.6717    7.4937 C.3     1  UNL1        0.0270
     29 C          59.0167   86.6821    8.5908 C.3     1  UNL1        0.0043
     30 C          59.8060   87.5309    9.5428 C.3     1  UNL1        0.0270
     31 N          62.2008   88.9093    9.8733 N.am    1  UNL1       -0.2826
     32 C          60.8546   89.3692    9.3978 C.2     1  UNL1        0.2419
     33 O          60.2977   90.6780    9.8744 O.2     1  UNL1       -0.2731
     34 H          62.5663   88.0504    9.5606 H       1  UNL1        0.1549
     35 C          64.4143   91.8789   11.2987 C.ar    1  UNL1        0.1397
     36 C          63.6250   91.0301   10.3467 C.ar    1  UNL1        0.0515
     37 C          62.9901   89.7582   10.8255 C.ar    1  UNL1        0.0534
     38 C          63.1446   89.3351   12.2562 C.ar    1  UNL1        0.0149
     39 C          63.9339   90.1840   13.2083 C.ar    1  UNL1        0.0043
     40 C          64.5688   91.4559   12.7296 C.ar    1  UNL1        0.0341
     41 C          65.3581   92.3048   13.6816 C.2     1  UNL1        0.0042
     42 C          66.6899   91.8299   14.1825 C.2     1  UNL1        0.0152
     43 C          67.4792   92.6788   15.1345 C.2     1  UNL1        0.0729
     44 O          66.8722   93.1070   16.4377 O.co2   1  UNL1       -0.5446
     45 O          68.8756   93.0994   14.7835 O.co2   1  UNL1       -0.5446
     46 O          65.0492   93.1508   10.8200 O.3     1  UNL1       -0.4754
     47 C          67.5162   92.3617   10.6175 C.3     1  UNL1        0.0512
     48 C          66.3396   93.1039   10.0567 C.3     1  UNL1        0.2055
@<TRIPOS>UNITY_ATOM_ATTR
44 1
charge -1
@<TRIPOS>BOND
     1    47    48    1
     2    48    46    1
     3    46    35    1
     4    35    36   ar
     5    36    37   ar
     6    37    31    1
     7    31    32   am
     8    32    33    2
     9    32    27    1
    10    27     1    1
    11     1     2   am
    12     2     3    2
    13     2     5    1
    14     5     6   ar
    15     6     7   ar
    16     7     8   ar
    17     8     9   ar
    18     9    22    1
    19    22    23    1
    20    23    24    1
    21    24    25    1
    22    25    26    1
    23     9    10   ar
    24    10    15    1
    25    15    16   ar
    26    16    17   ar
    27    17    18   ar
    28    18    19    1
    29    18    20   ar
    30    20    21   ar
    31    10    11   ar
    32    11    12    1
    33    11    13   ar
    34    13    14   ar
    35    27    28    1
    36    28    29    1
    37    29    30    1
    38    37    38   ar
    39    38    39   ar
    40    39    40   ar
    41    40    41    1
    42    41    42    2
    43    42    43    1
    44    43    44   ar
    45    43    45   ar
    46    40    35   ar
    47    30    27    1
    48    14     5   ar
    49    13     8   ar
    50    26    22    1
    51    21    15   ar
    52    31    34    1
    53     1     4    1
@<TRIPOS>MOLECULE
*****
 48 53 0 0 0
SMALL
GASTEIGER

@<TRIPOS>ATOM
      1 N          60.3109   89.4551    7.3718 N.am    1  UNL1       -0.2964
      2 C          59.2057   89.8491    6.4372 C.2     1  UNL1        0.2461
      3 O          57.8387   89.2531    6.5987 O.2     1  UNL1       -0.2701
      4 H          61.2081   89.8463    7.2657 H       1  UNL1        0.1501
      5 C          59.4676   90.8390    5.3410 C.ar    1  UNL1        0.0548
      6 C          58.3580   91.7163    4.8420 C.ar    1  UNL1        0.0046
      7 C          58.6199   92.7062    3.7458 C.ar    1  UNL1        0.0013
      8 C          59.9914   92.8187    3.1487 C.ar    1  UNL1        0.0133
      9 C          60.5453   93.6952    2.0647 C.ar    1  UNL1       -0.0023
     10 C          61.9972   93.3595    1.8938 C.ar    1  UNL1        0.0922
     11 N          62.3406   92.2755    2.8722 N.ar    1  UNL1       -0.3230
     12 C          63.6872   91.6377    3.0448 C.3     1  UNL1        0.1305
     13 C          61.1009   91.9413    3.6478 C.ar    1  UNL1        0.0598
     14 C          60.8390   90.9515    4.7439 C.ar    1  UNL1        0.0217
     15 C          62.9403   93.9959    0.9162 C.ar    1  UNL1        0.1781
     16 N          64.0017   94.9377    1.4025 N.ar    1  UNL1       -0.2229
     17 C          64.9447   95.5741    0.4250 C.ar    1  UNL1        0.1135
     18 C          64.8263   95.2688   -1.0388 C.ar    1  UNL1        0.0959
     19 CL         65.7693   95.9053   -2.0164 Cl      1  UNL1       -0.0790
     20 C          63.7649   94.3270   -1.5251 C.ar    1  UNL1        0.1135
     21 N          62.8219   93.6906   -0.5476 N.ar    1  UNL1       -0.2229
     22 C          59.7814   94.7263    1.2880 C.3     1  UNL1        0.0239
     23 C          58.8187   94.4538    0.1705 C.3     1  UNL1        0.0044
     24 C          58.2884   95.7700   -0.3158 C.3     1  UNL1        0.0003
     25 C          58.9234   96.8559    0.5012 C.3     1  UNL1        0.0003
     26 C          59.8462   96.2109    1.4924 C.3     1  UNL1        0.0044
     27 C          60.0490   88.4652    8.4680 C.3     1  UNL1        0.1260
     28 C          59.2590   87.6185    7.5146 C.3     1  UNL1        0.0270
     29 C          58.9972   86.6286    8.6107 C.3     1  UNL1        0.0043
     30 C          59.7871   87.4753    9.5641 C.3     1  UNL1        0.0270
     31 N          62.2139   88.8843    9.8418 N.am    1  UNL1       -0.2826
     32 C          60.8390   89.3119    9.4213 C.2     1  UNL1        0.2419
     33 O          60.2541   90.5863    9.9543 O.2     1  UNL1       -0.2731
     34 H          62.5978   88.0480    9.4920 H       1  UNL1        0.1549
     35 C          64.0781   90.0803   13.1349 C.ar    1  UNL1        0.1397
     36 C          63.2882   89.2336   12.1815 C.ar    1  UNL1        0.0515
     37 C          63.0039   89.7311   10.7953 C.ar    1  UNL1        0.0534
     38 C          63.5095   91.0753   10.3624 C.ar    1  UNL1        0.0149
     39 C          64.2995   91.9221   11.3159 C.ar    1  UNL1        0.0043
     40 C          64.5838   91.4246   12.7021 C.ar    1  UNL1        0.0341
     41 C          65.3738   92.2713   13.6555 C.2     1  UNL1        0.0042
     42 C          66.6798   91.7710   14.1977 C.2     1  UNL1        0.0152
     43 C          67.4698   92.6177   15.1511 C.2     1  UNL1        0.0729
     44 O          66.8756   93.0161   16.4695 O.co2   1  UNL1       -0.5446
     45 O          68.8539   93.0659   14.7861 O.co2   1  UNL1       -0.5446
     46 O          64.3624   89.5828   14.5211 O.3     1  UNL1       -0.4754
     47 C          63.1251   88.8708   16.6918 C.3     1  UNL1        0.0512
     48 C          63.4163   89.9006   15.6408 C.3     1  UNL1        0.2055
@<TRIPOS>UNITY_ATOM_ATTR
44 1
charge -1
@<TRIPOS>BOND
     1    47    48    1
     2    48    46    1
     3    46    35    1
     4    35    36   ar
     5    36    37   ar
     6    37    31    1
     7    31    32   am
     8    32    33    2
     9    32    27    1
    10    27     1    1
    11     1     2   am
    12     2     3    2
    13     2     5    1
    14     5     6   ar
    15     6     7   ar
    16     7     8   ar
    17     8     9   ar
    18     9    22    1
    19    22    23    1
    20    23    24    1
    21    24    25    1
    22    25    26    1
    23     9    10   ar
    24    10    15    1
    25    15    16   ar
    26    16    17   ar
    27    17    18   ar
    28    18    19    1
    29    18    20   ar
    30    20    21   ar
    31    10    11   ar
    32    11    12    1
    33    11    13   ar
    34    13    14   ar
    35    27    28    1
    36    28    29    1
    37    29    30    1
    38    37    38   ar
    39    38    39   ar
    40    39    40   ar
    41    40    41    1
    42    41    42    2
    43    42    43    1
    44    43    44   ar
    45    43    45   ar
    46    40    35   ar
    47    30    27    1
    48    14     5   ar
    49    13     8   ar
    50    26    22    1
    51    21    15   ar
    52    31    34    1
    53     1     4    1
