@<TRIPOS>MOLECULE
*****
 36 38 0 0 0
SMALL
GASTEIGER

@<TRIPOS>ATOM
      1 C          65.1327   84.8579   14.7004 C.3     1  UNL1        0.1443
      2 O          66.6226   84.9404   14.5472 O.3     1  UNL1       -0.3813
      3 H          66.8975   85.8706   14.5553 H       1  UNL1        0.2105
      4 C          64.3221   86.1128   14.8355 C.3     1  UNL1        0.1040
      5 C          62.5788   86.7685   18.3399 C.3     1  UNL1        0.0946
      6 C          62.8589   86.1993   16.9807 C.2     1  UNL1        0.2230
      7 O          61.9562   85.1475   16.4074 O.2     1  UNL1       -0.2751
      8 N          64.0419   86.6820   16.1947 N.am    1  UNL1       -0.3032
      9 H          64.6344   87.3724   16.5710 H       1  UNL1        0.1495
     10 C          63.7916   86.7985   13.6114 C.3     1  UNL1        0.0485
     11 C          63.8868   88.2903   13.4866 C.ar    1  UNL1       -0.0160
     12 C          63.2320   88.9897   12.3326 C.ar    1  UNL1        0.0256
     13 C          63.3271   90.4814   12.2079 C.ar    1  UNL1        0.1421
     14 F          62.6723   91.1809   11.0538 F       1  UNL1       -0.2041
     15 C          64.0772   91.2738   13.2373 C.ar    1  UNL1        0.0592
     16 C          64.7321   90.5743   14.3913 C.ar    1  UNL1        0.1421
     17 F          65.4821   91.3667   15.4207 F       1  UNL1       -0.2041
     18 C          64.6369   89.0826   14.5160 C.ar    1  UNL1        0.0256
     19 C          64.4535   83.5207   14.7186 C.3     1  UNL1        0.1000
     20 N          62.9842   83.4219   14.4331 N.3     1  UNL1       -0.2943
     21 H          62.7035   84.3125   14.0228 H       1  UNL1        0.1235
     22 C          62.4672   82.3450   13.5259 C.3     1  UNL1        0.0612
     23 C          61.7973   81.0793   13.0797 C.3     1  UNL1        0.0203
     24 C          61.8474   81.4274   14.5378 C.3     1  UNL1        0.0203
     25 C          62.9075   82.8886   12.1991 C.ar    1  UNL1       -0.0098
     26 C          63.9520   82.1656   11.4015 C.ar    1  UNL1       -0.0031
     27 C          64.3922   82.7093   10.0746 C.ar    1  UNL1       -0.0006
     28 C          63.7879   83.9761    9.5453 C.ar    1  UNL1       -0.0041
     29 C          62.7434   84.6991   10.3429 C.ar    1  UNL1       -0.0178
     30 C          62.3031   84.1554   11.6698 C.ar    1  UNL1       -0.0071
     31 C          62.1390   85.9659    9.8136 C.3     1  UNL1        0.0806
     32 C          62.9159   85.8046    8.5406 C.3     1  UNL1        0.0100
     33 C          61.3622   86.1271   11.0866 C.3     1  UNL1        0.0100
     34 C          61.5347   87.2326    9.2843 C.3     1  UNL1        0.3219
     35 F          62.2832   88.5271    9.4023 F       1  UNL1       -0.1981
     36 F          60.1818   87.2048    8.6371 F       1  UNL1       -0.1981
@<TRIPOS>BOND
     1     5     6    1
     2     6     7    2
     3     6     8   am
     4     8     4    1
     5     4    10    1
     6    10    11    1
     7    11    12   ar
     8    12    13   ar
     9    13    14    1
    10    13    15   ar
    11    15    16   ar
    12    16    17    1
    13    16    18   ar
    14     4     1    1
    15     1     2    1
    16     1    19    1
    17    19    20    1
    18    20    22    1
    19    22    25    1
    20    25    26   ar
    21    26    27   ar
    22    27    28   ar
    23    28    29   ar
    24    29    31    1
    25    31    32    1
    26    31    33    1
    27    31    34    1
    28    34    35    1
    29    34    36    1
    30    29    30   ar
    31    22    23    1
    32    23    24    1
    33    18    11   ar
    34    24    22    1
    35    30    25   ar
    36     8     9    1
    37     2     3    1
    38    20    21    1
@<TRIPOS>MOLECULE
*****
 36 38 0 0 0
SMALL
GASTEIGER

@<TRIPOS>ATOM
      1 C          63.3431   90.3747   12.5277 C.3     1  UNL1        0.1443
      2 O          62.7358   91.6266   11.9675 O.3     1  UNL1       -0.3813
      3 H          62.9649   92.3792   12.5350 H       1  UNL1        0.2105
      4 C          64.1582   90.4344   13.7856 C.3     1  UNL1        0.1040
      5 C          67.4941   92.4012   14.6536 C.3     1  UNL1        0.0946
      6 C          66.0691   91.9357   14.7047 C.2     1  UNL1        0.2230
      7 O          65.1299   92.5059   15.7258 O.2     1  UNL1       -0.2751
      8 N          65.5832   90.8999   13.7345 N.am    1  UNL1       -0.3032
      9 H          66.1996   90.5256   13.0643 H       1  UNL1        0.1495
     10 C          63.5482   90.0285   15.0944 C.3     1  UNL1        0.0485
     11 C          63.6390   88.6037   15.5545 C.ar    1  UNL1       -0.0160
     12 C          62.9593   88.1803   16.8228 C.ar    1  UNL1        0.0256
     13 C          63.0501   86.7555   17.2828 C.ar    1  UNL1        0.1421
     14 F          62.3703   86.3321   18.5512 F       1  UNL1       -0.2041
     15 C          63.8207   85.7541   16.4745 C.ar    1  UNL1        0.0592
     16 C          64.5004   86.1775   15.2062 C.ar    1  UNL1        0.1421
     17 F          65.2710   85.1760   14.3979 F       1  UNL1       -0.2041
     18 C          64.4096   87.6023   14.7462 C.ar    1  UNL1        0.0256
     19 C          63.1355   89.0632   11.8300 C.3     1  UNL1        0.1000
     20 N          61.8074   88.3710   11.9142 N.3     1  UNL1       -0.2943
     21 H          61.1758   89.0044   12.4043 H       1  UNL1        0.1235
     22 C          61.1041   87.9426   10.6604 C.3     1  UNL1        0.0612
     23 C          60.1345   87.9485    9.5160 C.3     1  UNL1        0.0203
     24 C          60.0930   89.0440   10.5397 C.3     1  UNL1        0.0203
     25 C          61.8710   86.6925   10.3458 C.ar    1  UNL1       -0.0098
     26 C          62.3121   86.4172    8.9388 C.ar    1  UNL1       -0.0031
     27 C          63.0790   85.1670    8.6243 C.ar    1  UNL1       -0.0006
     28 C          63.4049   84.1922    9.7168 C.ar    1  UNL1       -0.0041
     29 C          62.9639   84.4675   11.1237 C.ar    1  UNL1       -0.0178
     30 C          62.1969   85.7176   11.4383 C.ar    1  UNL1       -0.0071
     31 C          63.2898   83.4926   12.2163 C.3     1  UNL1        0.0806
     32 C          62.4248   84.2675   13.1657 C.3     1  UNL1        0.0100
     33 C          64.1547   82.7178   11.2668 C.3     1  UNL1        0.0100
     34 C          63.6156   82.5178   13.3088 C.3     1  UNL1        0.3219
     35 F          64.3579   81.2541   12.9895 F       1  UNL1       -0.1981
     36 F          63.1992   82.8069   14.7205 F       1  UNL1       -0.1981
@<TRIPOS>BOND
     1     5     6    1
     2     6     7    2
     3     6     8   am
     4     8     4    1
     5     4    10    1
     6    10    11    1
     7    11    12   ar
     8    12    13   ar
     9    13    14    1
    10    13    15   ar
    11    15    16   ar
    12    16    17    1
    13    16    18   ar
    14     4     1    1
    15     1     2    1
    16     1    19    1
    17    19    20    1
    18    20    22    1
    19    22    25    1
    20    25    26   ar
    21    26    27   ar
    22    27    28   ar
    23    28    29   ar
    24    29    31    1
    25    31    32    1
    26    31    33    1
    27    31    34    1
    28    34    35    1
    29    34    36    1
    30    29    30   ar
    31    22    23    1
    32    23    24    1
    33    18    11   ar
    34    24    22    1
    35    30    25   ar
    36     8     9    1
    37     2     3    1
    38    20    21    1
@<TRIPOS>MOLECULE
*****
 36 38 0 0 0
SMALL
GASTEIGER

@<TRIPOS>ATOM
      1 C          63.2758   90.3230   12.5119 C.3     1  UNL1        0.1443
      2 O          62.5459   91.5231   11.9856 O.3     1  UNL1       -0.3813
      3 H          62.7411   92.2913   12.5448 H       1  UNL1        0.2105
      4 C          64.1416   90.4467   13.7306 C.3     1  UNL1        0.1040
      5 C          67.4534   92.5219   14.4203 C.3     1  UNL1        0.0946
      6 C          66.0489   92.0108   14.5469 C.2     1  UNL1        0.2230
      7 O          65.1472   92.5524   15.6162 O.2     1  UNL1       -0.2751
      8 N          65.5461   90.9579   13.6041 N.am    1  UNL1       -0.3032
      9 H          66.1380   90.6024   12.9022 H       1  UNL1        0.1495
     10 C          63.6029   90.0592   15.0758 C.3     1  UNL1        0.0485
     11 C          63.6704   88.6305   15.5277 C.ar    1  UNL1       -0.0160
     12 C          64.4281   87.6221   14.7158 C.ar    1  UNL1        0.0256
     13 C          64.4956   86.1934   15.1676 C.ar    1  UNL1        0.1421
     14 F          65.2533   85.1850   14.3558 F       1  UNL1       -0.2041
     15 C          63.8055   85.7731   16.4314 C.ar    1  UNL1        0.0592
     16 C          63.0478   86.7814   17.2432 C.ar    1  UNL1        0.1421
     17 F          62.3576   86.3610   18.5069 F       1  UNL1       -0.2041
     18 C          62.9803   88.2101   16.7914 C.ar    1  UNL1        0.0256
     19 C          63.1400   88.9993   11.8197 C.3     1  UNL1        0.1000
     20 N          61.8498   88.2387   11.9023 N.3     1  UNL1       -0.2943
     21 H          61.1936   88.8269   12.4159 H       1  UNL1        0.1235
     22 C          61.1524   87.8061   10.6467 C.3     1  UNL1        0.0612
     23 C          60.1852   87.8057    9.5002 C.3     1  UNL1        0.0203
     24 C          60.1334   88.9001   10.5247 C.3     1  UNL1        0.0203
     25 C          61.9292   86.5619   10.3328 C.ar    1  UNL1       -0.0098
     26 C          62.3959   86.3027    8.9310 C.ar    1  UNL1       -0.0031
     27 C          63.1728   85.0585    8.6171 C.ar    1  UNL1       -0.0006
     28 C          63.4829   84.0735    9.7051 C.ar    1  UNL1       -0.0041
     29 C          63.0162   84.3327   11.1068 C.ar    1  UNL1       -0.0178
     30 C          62.2393   85.5769   11.4208 C.ar    1  UNL1       -0.0071
     31 C          63.3263   83.3477   12.1948 C.3     1  UNL1        0.0806
     32 C          64.2215   82.5935   11.2568 C.3     1  UNL1        0.0100
     33 C          62.4311   84.1019   13.1327 C.3     1  UNL1        0.0100
     34 C          63.6364   82.3626   13.2827 C.3     1  UNL1        0.3219
     35 F          63.8260   80.9125   12.9498 F       1  UNL1       -0.1981
     36 F          63.7570   82.8280   14.7036 F       1  UNL1       -0.1981
@<TRIPOS>BOND
     1     5     6    1
     2     6     7    2
     3     6     8   am
     4     8     4    1
     5     4    10    1
     6    10    11    1
     7    11    12   ar
     8    12    13   ar
     9    13    14    1
    10    13    15   ar
    11    15    16   ar
    12    16    17    1
    13    16    18   ar
    14     4     1    1
    15     1     2    1
    16     1    19    1
    17    19    20    1
    18    20    22    1
    19    22    25    1
    20    25    26   ar
    21    26    27   ar
    22    27    28   ar
    23    28    29   ar
    24    29    31    1
    25    31    32    1
    26    31    33    1
    27    31    34    1
    28    34    35    1
    29    34    36    1
    30    29    30   ar
    31    22    23    1
    32    23    24    1
    33    18    11   ar
    34    24    22    1
    35    30    25   ar
    36     8     9    1
    37     2     3    1
    38    20    21    1
@<TRIPOS>MOLECULE
*****
 36 38 0 0 0
SMALL
GASTEIGER

@<TRIPOS>ATOM
      1 C          61.8941   89.7083   12.1576 C.3     1  UNL1        0.1443
      2 O          60.5997   90.4651   12.1992 O.3     1  UNL1       -0.3813
      3 H          60.6474   91.1498   12.8847 H       1  UNL1        0.2105
      4 C          63.0054   90.0707   13.0977 C.3     1  UNL1        0.1040
      5 C          63.0670   89.0862   16.9418 C.3     1  UNL1        0.0946
      6 C          63.3189   89.0441   15.4637 C.2     1  UNL1        0.2230
      7 O          64.1361   87.9334   14.8735 O.2     1  UNL1       -0.2751
      8 N          62.7535   90.1128   14.5758 N.am    1  UNL1       -0.3032
      9 H          62.2171   90.8419   14.9632 H       1  UNL1        0.1495
     10 C          64.3684   90.3910   12.5597 C.3     1  UNL1        0.0485
     11 C          65.1385   91.5539   13.1119 C.ar    1  UNL1       -0.0160
     12 C          65.4102   92.7508   12.2496 C.ar    1  UNL1        0.0256
     13 C          66.1802   93.9136   12.8018 C.ar    1  UNL1        0.1421
     14 F          66.4520   95.1106   11.9396 F       1  UNL1       -0.2041
     15 C          66.6785   93.8795   14.2162 C.ar    1  UNL1        0.0592
     16 C          66.4068   92.6826   15.0785 C.ar    1  UNL1        0.1421
     17 F          66.9050   92.6485   16.4929 F       1  UNL1       -0.2041
     18 C          65.6367   91.5198   14.5263 C.ar    1  UNL1        0.0256
     19 C          62.0772   88.5891   11.1759 C.3     1  UNL1        0.1000
     20 N          60.9839   87.5823   10.9738 N.3     1  UNL1       -0.2943
     21 H          60.1008   88.0800   11.0869 H       1  UNL1        0.1235
     22 C          60.8916   86.8242    9.6827 C.3     1  UNL1        0.0612
     23 C          60.4619   86.4513    8.2948 C.3     1  UNL1        0.0203
     24 C          59.8883   87.6696    8.9556 C.3     1  UNL1        0.0203
     25 C          61.8627   85.7156    9.9616 C.ar    1  UNL1       -0.0098
     26 C          62.7964   85.2479    8.8849 C.ar    1  UNL1       -0.0031
     27 C          63.7676   84.1392    9.1639 C.ar    1  UNL1       -0.0006
     28 C          63.8050   83.4984   10.5196 C.ar    1  UNL1       -0.0041
     29 C          62.8713   83.9662   11.5963 C.ar    1  UNL1       -0.0178
     30 C          61.9001   85.0748   11.3174 C.ar    1  UNL1       -0.0071
     31 C          62.9087   83.3253   12.9521 C.3     1  UNL1        0.0806
     32 C          62.5255   82.0101   12.3409 C.3     1  UNL1        0.0100
     33 C          63.2920   84.6405   13.5631 C.3     1  UNL1        0.0100
     34 C          62.9462   82.6844   14.3077 C.3     1  UNL1        0.3219
     35 F          63.9658   83.1229   15.3167 F       1  UNL1       -0.1981
     36 F          61.9639   81.6052   14.6544 F       1  UNL1       -0.1981
@<TRIPOS>BOND
     1     5     6    1
     2     6     7    2
     3     6     8   am
     4     8     4    1
     5     4    10    1
     6    10    11    1
     7    11    12   ar
     8    12    13   ar
     9    13    14    1
    10    13    15   ar
    11    15    16   ar
    12    16    17    1
    13    16    18   ar
    14     4     1    1
    15     1     2    1
    16     1    19    1
    17    19    20    1
    18    20    22    1
    19    22    25    1
    20    25    26   ar
    21    26    27   ar
    22    27    28   ar
    23    28    29   ar
    24    29    31    1
    25    31    32    1
    26    31    33    1
    27    31    34    1
    28    34    35    1
    29    34    36    1
    30    29    30   ar
    31    22    23    1
    32    23    24    1
    33    18    11   ar
    34    24    22    1
    35    30    25   ar
    36     8     9    1
    37     2     3    1
    38    20    21    1
@<TRIPOS>MOLECULE
*****
 36 38 0 0 0
SMALL
GASTEIGER

@<TRIPOS>ATOM
      1 C          61.8154   89.6735   12.2275 C.3     1  UNL1        0.1443
      2 O          60.4763   90.3282   12.3950 O.3     1  UNL1       -0.3813
      3 H          60.5164   90.9639   13.1265 H       1  UNL1        0.2105
      4 C          62.9520   90.0488   13.1316 C.3     1  UNL1        0.1040
      5 C          63.1060   89.0610   16.9722 C.3     1  UNL1        0.0946
      6 C          63.3129   89.0141   15.4873 C.2     1  UNL1        0.2230
      7 O          64.0875   87.8859   14.8732 O.2     1  UNL1       -0.2751
      8 N          62.7452   90.0956   14.6165 N.am    1  UNL1       -0.3032
      9 H          62.2368   90.8361   15.0196 H       1  UNL1        0.1495
     10 C          64.2954   90.3772   12.5508 C.3     1  UNL1        0.0485
     11 C          65.0882   91.5272   13.0977 C.ar    1  UNL1       -0.0160
     12 C          65.5952   91.4849   14.5087 C.ar    1  UNL1        0.0256
     13 C          66.3879   92.6349   15.0556 C.ar    1  UNL1        0.1421
     14 F          66.8950   92.5927   16.4667 F       1  UNL1       -0.2041
     15 C          66.6737   93.8272   14.1913 C.ar    1  UNL1        0.0592
     16 C          66.1667   93.8694   12.7803 C.ar    1  UNL1        0.1421
     17 F          66.4524   95.0617   11.9161 F       1  UNL1       -0.2041
     18 C          65.3740   92.7195   12.2335 C.ar    1  UNL1        0.0256
     19 C          62.0180   88.6437   11.1559 C.3     1  UNL1        0.1000
     20 N          60.9847   87.5793   10.9337 N.3     1  UNL1       -0.2943
     21 H          60.0745   88.0207   11.0645 H       1  UNL1        0.1235
     22 C          60.9283   86.8505    9.6238 C.3     1  UNL1        0.0612
     23 C          60.5367   86.5085    8.2168 C.3     1  UNL1        0.0203
     24 C          59.9437   87.7111    8.8892 C.3     1  UNL1        0.0203
     25 C          61.8934   85.7368    9.9037 C.ar    1  UNL1       -0.0098
     26 C          62.8167   85.2553    8.8241 C.ar    1  UNL1       -0.0031
     27 C          63.7817   84.1415    9.1041 C.ar    1  UNL1       -0.0006
     28 C          63.8234   83.5094   10.4637 C.ar    1  UNL1       -0.0041
     29 C          62.9001   83.9909   11.5433 C.ar    1  UNL1       -0.0178
     30 C          61.9351   85.1045   11.2634 C.ar    1  UNL1       -0.0071
     31 C          62.9418   83.3586   12.9031 C.3     1  UNL1        0.0806
     32 C          62.5051   82.0523   12.3090 C.3     1  UNL1        0.0100
     33 C          63.3786   84.6649   13.4970 C.3     1  UNL1        0.0100
     34 C          62.9835   82.7264   14.2627 C.3     1  UNL1        0.3219
     35 F          64.1672   82.9482   15.1569 F       1  UNL1       -0.1981
     36 F          61.8415   81.8725   14.7279 F       1  UNL1       -0.1981
@<TRIPOS>BOND
     1     5     6    1
     2     6     7    2
     3     6     8   am
     4     8     4    1
     5     4    10    1
     6    10    11    1
     7    11    12   ar
     8    12    13   ar
     9    13    14    1
    10    13    15   ar
    11    15    16   ar
    12    16    17    1
    13    16    18   ar
    14     4     1    1
    15     1     2    1
    16     1    19    1
    17    19    20    1
    18    20    22    1
    19    22    25    1
    20    25    26   ar
    21    26    27   ar
    22    27    28   ar
    23    28    29   ar
    24    29    31    1
    25    31    32    1
    26    31    33    1
    27    31    34    1
    28    34    35    1
    29    34    36    1
    30    29    30   ar
    31    22    23    1
    32    23    24    1
    33    18    11   ar
    34    24    22    1
    35    30    25   ar
    36     8     9    1
    37     2     3    1
    38    20    21    1
@<TRIPOS>MOLECULE
*****
 36 38 0 0 0
SMALL
GASTEIGER

@<TRIPOS>ATOM
      1 C          63.9012   90.6885   13.1565 C.3     1  UNL1        0.1443
      2 O          63.1517   90.8896   14.4402 O.3     1  UNL1       -0.3813
      3 H          63.4770   91.6891   14.8827 H       1  UNL1        0.2105
      4 C          64.9676   91.6621   12.7502 C.3     1  UNL1        0.1040
      5 C          67.7994   92.0275   15.5066 C.3     1  UNL1        0.0946
      6 C          66.4555   92.0663   14.8413 C.2     1  UNL1        0.2230
      7 O          65.2558   92.5482   15.6018 O.2     1  UNL1       -0.2751
      8 N          66.3114   91.6233   13.4154 N.am    1  UNL1       -0.3032
      9 H          67.0989   91.3070   12.9163 H       1  UNL1        0.1495
     10 C          64.6901   92.6745   11.6787 C.3     1  UNL1        0.0485
     11 C          65.8235   93.2660   10.8941 C.ar    1  UNL1       -0.0160
     12 C          66.8167   92.3680   10.2179 C.ar    1  UNL1        0.0256
     13 C          67.9500   92.9596    9.4334 C.ar    1  UNL1        0.1421
     14 F          68.9432   92.0616    8.7571 F       1  UNL1       -0.2041
     15 C          68.0902   94.4491    9.3250 C.ar    1  UNL1        0.0592
     16 C          67.0970   95.3470   10.0012 C.ar    1  UNL1        0.1421
     17 F          67.2372   96.8365    9.8928 F       1  UNL1       -0.2041
     18 C          65.9637   94.7555   10.7857 C.ar    1  UNL1        0.0256
     19 C          63.5843   89.5139   12.2791 C.3     1  UNL1        0.1000
     20 N          62.2424   88.8501   12.3703 N.3     1  UNL1       -0.2943
     21 H          61.6924   89.3885   13.0396 H       1  UNL1        0.1235
     22 C          61.3972   88.6949   11.1408 C.3     1  UNL1        0.0612
     23 C          60.3666   88.9918   10.0922 C.3     1  UNL1        0.0203
     24 C          60.5696   89.9424   11.2346 C.3     1  UNL1        0.0203
     25 C          61.9314   87.3935   10.6201 C.ar    1  UNL1       -0.0098
     26 C          62.0227   87.1580    9.1416 C.ar    1  UNL1       -0.0031
     27 C          62.5569   85.8566    8.6210 C.ar    1  UNL1       -0.0006
     28 C          62.9998   84.7908    9.5790 C.ar    1  UNL1       -0.0041
     29 C          62.9086   85.0263   11.0575 C.ar    1  UNL1       -0.0178
     30 C          62.3744   86.3276   11.5782 C.ar    1  UNL1       -0.0071
     31 C          63.3515   83.9604   12.0156 C.3     1  UNL1        0.0806
     32 C          63.9662   83.1959   10.8808 C.3     1  UNL1        0.0100
     33 C          62.7369   84.7250   13.1503 C.3     1  UNL1        0.0100
     34 C          63.7945   82.8945   12.9736 C.3     1  UNL1        0.3219
     35 F          64.7436   81.8255   12.5196 F       1  UNL1       -0.1981
     36 F          63.2882   82.8979   14.3855 F       1  UNL1       -0.1981
@<TRIPOS>BOND
     1     5     6    1
     2     6     7    2
     3     6     8   am
     4     8     4    1
     5     4    10    1
     6    10    11    1
     7    11    12   ar
     8    12    13   ar
     9    13    14    1
    10    13    15   ar
    11    15    16   ar
    12    16    17    1
    13    16    18   ar
    14     4     1    1
    15     1     2    1
    16     1    19    1
    17    19    20    1
    18    20    22    1
    19    22    25    1
    20    25    26   ar
    21    26    27   ar
    22    27    28   ar
    23    28    29   ar
    24    29    31    1
    25    31    32    1
    26    31    33    1
    27    31    34    1
    28    34    35    1
    29    34    36    1
    30    29    30   ar
    31    22    23    1
    32    23    24    1
    33    18    11   ar
    34    24    22    1
    35    30    25   ar
    36     8     9    1
    37     2     3    1
    38    20    21    1
@<TRIPOS>MOLECULE
*****
 36 38 0 0 0
SMALL
GASTEIGER

@<TRIPOS>ATOM
      1 C          63.5547   86.8382   13.4692 C.3     1  UNL1        0.1443
      2 O          62.5830   86.2132   12.5126 O.3     1  UNL1       -0.3813
      3 H          62.4313   85.2887   12.7637 H       1  UNL1        0.2105
      4 C          64.1226   86.0286   14.5972 C.3     1  UNL1        0.1040
      5 C          62.7035   86.6372   18.2531 C.3     1  UNL1        0.0946
      6 C          62.8195   86.1420   16.8420 C.2     1  UNL1        0.2230
      7 O          61.7483   85.2652   16.2645 O.2     1  UNL1       -0.2751
      8 N          64.0067   86.5238   16.0083 N.am    1  UNL1       -0.3032
      9 H          64.7098   87.0993   16.3874 H       1  UNL1        0.1495
     10 C          64.8064   84.7240   14.3139 C.3     1  UNL1        0.0485
     11 C          64.0524   83.6110   13.6484 C.ar    1  UNL1       -0.0160
     12 C          63.0029   82.8563   14.4092 C.ar    1  UNL1        0.0256
     13 C          62.2490   81.7433   13.7437 C.ar    1  UNL1        0.1421
     14 F          61.1994   80.9885   14.5044 F       1  UNL1       -0.2041
     15 C          62.5447   81.3851   12.3174 C.ar    1  UNL1        0.0592
     16 C          63.5942   82.1398   11.5566 C.ar    1  UNL1        0.1421
     17 F          63.8899   81.7816   10.1304 F       1  UNL1       -0.2041
     18 C          64.3481   83.2527   12.2222 C.ar    1  UNL1        0.0256
     19 C          63.9585   88.2726   13.2980 C.3     1  UNL1        0.1000
     20 N          62.9200   89.3140   13.0032 N.3     1  UNL1       -0.2943
     21 H          63.0576   90.0664   13.6780 H       1  UNL1        0.1235
     22 C          62.8627   89.9533   11.6474 C.3     1  UNL1        0.0612
     23 C          63.1752   90.8848   10.5140 C.3     1  UNL1        0.0203
     24 C          63.9073   91.0164   11.8165 C.3     1  UNL1        0.0203
     25 C          61.7982   89.1122   11.0076 C.ar    1  UNL1       -0.0098
     26 C          60.3581   89.3200   11.3720 C.ar    1  UNL1       -0.0031
     27 C          59.2936   88.4789   10.7322 C.ar    1  UNL1       -0.0006
     28 C          59.6694   87.4299    9.7279 C.ar    1  UNL1       -0.0041
     29 C          61.1095   87.2222    9.3635 C.ar    1  UNL1       -0.0178
     30 C          62.1739   88.0633   10.0033 C.ar    1  UNL1       -0.0071
     31 C          61.4852   86.1732    8.3591 C.3     1  UNL1        0.0806
     32 C          60.0905   86.2015    7.8078 C.3     1  UNL1        0.0100
     33 C          62.8799   86.1449    8.9105 C.3     1  UNL1        0.0100
     34 C          61.8609   85.1243    7.3548 C.3     1  UNL1        0.3219
     35 F          63.2423   84.5399    7.3617 F       1  UNL1       -0.1981
     36 F          60.8550   84.6598    6.3436 F       1  UNL1       -0.1981
@<TRIPOS>BOND
     1     5     6    1
     2     6     7    2
     3     6     8   am
     4     8     4    1
     5     4    10    1
     6    10    11    1
     7    11    12   ar
     8    12    13   ar
     9    13    14    1
    10    13    15   ar
    11    15    16   ar
    12    16    17    1
    13    16    18   ar
    14     4     1    1
    15     1     2    1
    16     1    19    1
    17    19    20    1
    18    20    22    1
    19    22    25    1
    20    25    26   ar
    21    26    27   ar
    22    27    28   ar
    23    28    29   ar
    24    29    31    1
    25    31    32    1
    26    31    33    1
    27    31    34    1
    28    34    35    1
    29    34    36    1
    30    29    30   ar
    31    22    23    1
    32    23    24    1
    33    18    11   ar
    34    24    22    1
    35    30    25   ar
    36     8     9    1
    37     2     3    1
    38    20    21    1
@<TRIPOS>MOLECULE
*****
 36 38 0 0 0
SMALL
GASTEIGER

@<TRIPOS>ATOM
      1 C          63.5790   90.8167   11.6196 C.3     1  UNL1        0.1443
      2 O          63.5474   91.8031   10.4900 O.3     1  UNL1       -0.3813
      3 H          64.0670   92.5862   10.7300 H       1  UNL1        0.2105
      4 C          64.3426   91.1339   12.8712 C.3     1  UNL1        0.1040
      5 C          63.1003   89.7172   16.3640 C.3     1  UNL1        0.0946
      6 C          63.7796   89.8014   15.0293 C.2     1  UNL1        0.2230
      7 O          64.5754   88.6372   14.5181 O.2     1  UNL1       -0.2751
      8 N          63.6632   91.0498   14.2059 N.am    1  UNL1       -0.3032
      9 H          63.1409   91.8139   14.5414 H       1  UNL1        0.1495
     10 C          65.7855   91.5352   12.7881 C.3     1  UNL1        0.0485
     11 C          66.2008   92.6581   11.8842 C.ar    1  UNL1       -0.0160
     12 C          65.8921   94.0769   12.2603 C.ar    1  UNL1        0.0256
     13 C          66.3074   95.1997   11.3566 C.ar    1  UNL1        0.1421
     14 F          65.9988   96.6186   11.7326 F       1  UNL1       -0.2041
     15 C          67.0314   94.9036   10.0767 C.ar    1  UNL1        0.0592
     16 C          67.3401   93.4847    9.7005 C.ar    1  UNL1        0.1421
     17 F          68.0641   93.1886    8.4206 F       1  UNL1       -0.2041
     18 C          66.9248   92.3620   10.6043 C.ar    1  UNL1        0.0256
     19 C          62.8471   89.5131   11.4977 C.3     1  UNL1        0.1000
     20 N          62.5520   88.9427   10.1422 N.3     1  UNL1       -0.2943
     21 H          63.3751   88.4097    9.8614 H       1  UNL1        0.1235
     22 C          61.3671   88.0433    9.9486 C.3     1  UNL1        0.0612
     23 C          59.9475   87.6087    9.7350 C.3     1  UNL1        0.0203
     24 C          60.2796   89.0688    9.8236 C.3     1  UNL1        0.0203
     25 C          62.0433   86.7056   10.0064 C.ar    1  UNL1       -0.0098
     26 C          62.5948   86.0893    8.7551 C.ar    1  UNL1       -0.0031
     27 C          63.2710   84.7515    8.8130 C.ar    1  UNL1       -0.0006
     28 C          63.3957   84.0303   10.1223 C.ar    1  UNL1       -0.0041
     29 C          62.8442   84.6467   11.3736 C.ar    1  UNL1       -0.0178
     30 C          62.1680   85.9843   11.3158 C.ar    1  UNL1       -0.0071
     31 C          62.9689   83.9253   12.6830 C.3     1  UNL1        0.0806
     32 C          62.5733   82.6424   12.0139 C.3     1  UNL1        0.0100
     33 C          63.3644   85.2083   13.3520 C.3     1  UNL1        0.0100
     34 C          63.0936   83.2040   13.9923 C.3     1  UNL1        0.3219
     35 F          64.4080   83.1826   14.7145 F       1  UNL1       -0.1981
     36 F          61.9037   82.5042   14.5792 F       1  UNL1       -0.1981
@<TRIPOS>BOND
     1     5     6    1
     2     6     7    2
     3     6     8   am
     4     8     4    1
     5     4    10    1
     6    10    11    1
     7    11    12   ar
     8    12    13   ar
     9    13    14    1
    10    13    15   ar
    11    15    16   ar
    12    16    17    1
    13    16    18   ar
    14     4     1    1
    15     1     2    1
    16     1    19    1
    17    19    20    1
    18    20    22    1
    19    22    25    1
    20    25    26   ar
    21    26    27   ar
    22    27    28   ar
    23    28    29   ar
    24    29    31    1
    25    31    32    1
    26    31    33    1
    27    31    34    1
    28    34    35    1
    29    34    36    1
    30    29    30   ar
    31    22    23    1
    32    23    24    1
    33    18    11   ar
    34    24    22    1
    35    30    25   ar
    36     8     9    1
    37     2     3    1
    38    20    21    1
@<TRIPOS>MOLECULE
*****
 36 38 0 0 0
SMALL
GASTEIGER

@<TRIPOS>ATOM
      1 C          63.5006   86.7982   13.3834 C.3     1  UNL1        0.1443
      2 O          62.5733   86.1317   12.4108 O.3     1  UNL1       -0.3813
      3 H          62.4509   85.2036   12.6649 H       1  UNL1        0.2105
      4 C          64.0743   86.0173   14.5284 C.3     1  UNL1        0.1040
      5 C          62.7129   86.6859   18.1958 C.3     1  UNL1        0.0946
      6 C          62.8163   86.1525   16.7977 C.2     1  UNL1        0.2230
      7 O          61.7653   85.2211   16.2706 O.2     1  UNL1       -0.2751
      8 N          63.9709   86.5506   15.9266 N.am    1  UNL1       -0.3032
      9 H          64.6607   87.1619   16.2725 H       1  UNL1        0.1495
     10 C          64.7514   84.7030   14.2753 C.3     1  UNL1        0.0485
     11 C          63.9935   83.5809   13.6298 C.ar    1  UNL1       -0.0160
     12 C          62.9316   82.8528   14.3993 C.ar    1  UNL1        0.0256
     13 C          62.1738   81.7308   13.7538 C.ar    1  UNL1        0.1421
     14 F          61.1118   81.0026   14.5233 F       1  UNL1       -0.2041
     15 C          62.4779   81.3368   12.3388 C.ar    1  UNL1        0.0592
     16 C          63.5398   82.0649   11.5692 C.ar    1  UNL1        0.1421
     17 F          63.8439   81.6709   10.1542 F       1  UNL1       -0.2041
     18 C          64.2976   83.1869   12.2147 C.ar    1  UNL1        0.0256
     19 C          63.8541   88.2457   13.2110 C.3     1  UNL1        0.1000
     20 N          62.7694   89.2792   13.1385 N.3     1  UNL1       -0.2943
     21 H          63.0133   90.0096   13.8074 H       1  UNL1        0.1235
     22 C          62.4725   89.9648   11.8378 C.3     1  UNL1        0.0612
     23 C          61.7860   90.3047   10.5481 C.3     1  UNL1        0.0203
     24 C          61.2477   89.2076   11.4179 C.3     1  UNL1        0.0203
     25 C          63.5943   90.9601   11.8061 C.ar    1  UNL1       -0.0098
     26 C          63.9535   91.6447   10.5207 C.ar    1  UNL1       -0.0031
     27 C          65.0753   92.6400   10.4891 C.ar    1  UNL1       -0.0006
     28 C          65.8378   92.9507   11.7429 C.ar    1  UNL1       -0.0041
     29 C          65.4786   92.2662   13.0282 C.ar    1  UNL1       -0.0178
     30 C          64.3568   91.2709   13.0599 C.ar    1  UNL1       -0.0071
     31 C          66.2411   92.5769   14.2821 C.3     1  UNL1        0.0806
     32 C          65.9042   91.2192   14.8235 C.3     1  UNL1        0.0100
     33 C          66.5780   93.9346   13.7407 C.3     1  UNL1        0.0100
     34 C          67.0036   92.8876   15.5359 C.3     1  UNL1        0.3219
     35 F          66.3361   92.7533   16.8724 F       1  UNL1       -0.1981
     36 F          68.4337   93.3326   15.4531 F       1  UNL1       -0.1981
@<TRIPOS>BOND
     1     5     6    1
     2     6     7    2
     3     6     8   am
     4     8     4    1
     5     4    10    1
     6    10    11    1
     7    11    12   ar
     8    12    13   ar
     9    13    14    1
    10    13    15   ar
    11    15    16   ar
    12    16    17    1
    13    16    18   ar
    14     4     1    1
    15     1     2    1
    16     1    19    1
    17    19    20    1
    18    20    22    1
    19    22    25    1
    20    25    26   ar
    21    26    27   ar
    22    27    28   ar
    23    28    29   ar
    24    29    31    1
    25    31    32    1
    26    31    33    1
    27    31    34    1
    28    34    35    1
    29    34    36    1
    30    29    30   ar
    31    22    23    1
    32    23    24    1
    33    18    11   ar
    34    24    22    1
    35    30    25   ar
    36     8     9    1
    37     2     3    1
    38    20    21    1
