@<TRIPOS>MOLECULE
*****
 37 41 0 0 0
SMALL
GASTEIGER

@<TRIPOS>ATOM
      1 C          63.4054   90.8520   11.6171 C.3     1  UNL1        0.1160
      2 C          63.6978   91.7537   10.4547 C.3     1  UNL1        0.0213
      3 C          64.8535   92.7080   10.5178 C.3     1  UNL1        0.0030
      4 C          65.7167   92.7604   11.7435 C.3     1  UNL1        0.0178
      5 C          65.4243   91.8586   12.9059 C.3     1  UNL1        0.0796
      6 N          64.2686   90.9044   12.8427 N.3     1  UNL1       -0.1549
      7 C          62.2498   89.8978   11.5539 C.3     1  UNL1        0.1525
      8 C          61.1135   90.8713   11.4493 C.3     1  UNL1        0.0452
      9 C          60.8389   89.3967   11.4620 C.3     1  UNL1        0.0452
     10 O          62.9847   88.5928   11.6365 O.3     1  UNL1       -0.4404
     11 N          62.6374   83.2373   12.3066 N.3     1  UNL1       -0.2699
     12 C          62.2358   83.5058   10.8866 C.3     1  UNL1        0.0940
     13 C          62.2222   84.9118   10.3641 C.3     1  UNL1        0.1141
     14 N          62.6103   86.0493   11.2616 N.am    1  UNL1       -0.2432
     15 C          62.5967   87.4553   10.7390 C.2     1  UNL1        0.4048
     16 O          62.1950   87.7238    9.3189 O.2     1  UNL1       -0.2262
     17 C          63.0119   85.7808   12.6817 C.3     1  UNL1        0.1141
     18 C          63.0254   84.3748   13.2042 C.3     1  UNL1        0.0940
     19 C          62.9905   81.3253   11.4586 C.3     1  UNL1        0.0186
     20 C          62.6510   81.8313   12.8292 C.3     1  UNL1        0.0726
     21 C          62.3115   82.3375   14.1998 C.3     1  UNL1        0.0186
     22 C          62.6646   80.4254   13.3518 C.3     1  UNL1        0.1516
     23 O          63.6331   80.0348   14.4286 O.3     1  UNL1       -0.3806
     24 H          64.5383   80.0888   14.0845 H       1  UNL1        0.2105
     25 C          66.2874   91.9110   14.1315 C.3     1  UNL1        0.0164
     26 C          67.5577   91.5489   14.8422 C.3     1  UNL1        0.0014
     27 C          66.5119   92.3638   15.5439 C.3     1  UNL1        0.0014
     28 S          63.9761   90.0026   14.0051 S.O2    1  UNL1        0.0633
     29 O          64.6047   88.8500   13.6908 O.2     1  UNL1       -0.1528
     30 O          63.1833   91.0976   14.6551 O.2     1  UNL1       -0.1528
     31 C          63.6835   89.1008   15.1676 C.ar    1  UNL1        0.1223
     32 C          63.1224   89.6711   16.4364 C.ar    1  UNL1        0.0208
     33 C          62.8299   88.7694   17.5989 C.ar    1  UNL1        0.0128
     34 C          63.0983   87.2974   17.4926 C.ar    1  UNL1        0.0578
     35 CL         62.8058   86.3958   18.6550 Cl      1  UNL1       -0.0822
     36 C          63.6595   86.7272   16.2237 C.ar    1  UNL1        0.0128
     37 C          63.9521   87.6289   15.0612 C.ar    1  UNL1        0.0208
@<TRIPOS>BOND
     1    19    20    1
     2    20    21    1
     3    20    22    1
     4    22    23    1
     5    20    11    1
     6    11    12    1
     7    12    13    1
     8    13    14    1
     9    14    15   am
    10    15    16    2
    11    15    10    1
    12    10     7    1
    13     1     7    1
    14     1     2    1
    15     2     3    1
    16     3     4    1
    17     4     5    1
    18     5    25    1
    19    25    26    1
    20    26    27    1
    21     5     6    1
    22     6    28    1
    23    28    29    2
    24    28    30    2
    25    28    31    1
    26    31    32   ar
    27    32    33   ar
    28    33    34   ar
    29    34    35    1
    30    34    36   ar
    31    36    37   ar
    32     7     8    1
    33     8     9    1
    34    14    17    1
    35    17    18    1
    36    18    11    1
    37     9     7    1
    38     6     1    1
    39    37    31   ar
    40    27    25    1
    41    23    24    1
@<TRIPOS>MOLECULE
*****
 37 41 0 0 0
SMALL
GASTEIGER

@<TRIPOS>ATOM
      1 C          60.4937   88.7454    9.7431 C.3     1  UNL1        0.1160
      2 C          59.7254   89.7220    8.9030 C.3     1  UNL1        0.0213
      3 C          59.3664   89.3748    7.4886 C.3     1  UNL1        0.0030
      4 C          59.7757   88.0508    6.9144 C.3     1  UNL1        0.0178
      5 C          60.5440   87.0742    7.7545 C.3     1  UNL1        0.0796
      6 N          60.9030   87.4214    9.1689 N.3     1  UNL1       -0.1549
      7 C          60.8527   89.0926   11.1575 C.3     1  UNL1        0.1525
      8 C          59.4812   89.2048   11.7544 C.3     1  UNL1        0.0452
      9 C          60.6922   89.4369   12.6087 C.3     1  UNL1        0.0452
     10 O          62.3490   89.1010   11.0519 O.3     1  UNL1       -0.4404
     11 N          65.8866   91.8190   14.1093 N.3     1  UNL1       -0.2699
     12 C          65.6850   92.6443   12.8731 C.3     1  UNL1        0.0940
     13 C          64.7501   92.1710   11.7997 C.3     1  UNL1        0.1141
     14 N          64.0170   90.8726   11.9626 N.am    1  UNL1       -0.2432
     15 C          63.0822   90.3994   10.8891 C.2     1  UNL1        0.4048
     16 O          62.8805   91.2246    9.6528 O.2     1  UNL1       -0.2262
     17 C          64.2186   90.0473   13.1988 C.3     1  UNL1        0.1141
     18 C          65.1535   90.5206   14.2722 C.3     1  UNL1        0.0940
     19 C          67.9809   92.1271   14.2457 C.3     1  UNL1        0.0186
     20 C          66.8214   92.2922   15.1828 C.3     1  UNL1        0.0726
     21 C          65.6619   92.4573   16.1199 C.3     1  UNL1        0.0186
     22 C          67.7562   92.7653   16.2562 C.3     1  UNL1        0.1516
     23 O          68.3847   94.1238   16.1581 O.3     1  UNL1       -0.3806
     24 H          68.9858   94.1478   15.3973 H       1  UNL1        0.2105
     25 C          60.9533   85.7503    7.1803 C.3     1  UNL1        0.0164
     26 C          60.5894   84.3895    6.6648 C.3     1  UNL1        0.0014
     27 C          62.0264   84.8181    6.7013 C.3     1  UNL1        0.0014
     28 S          61.6713   86.4448   10.0090 S.O2    1  UNL1        0.0633
     29 O          60.7678   86.0096   10.9128 O.2     1  UNL1       -0.1528
     30 O          62.8977   86.6996    9.1837 O.2     1  UNL1       -0.1528
     31 C          62.4398   85.4682   10.8492 C.ar    1  UNL1        0.1223
     32 C          62.5001   85.6443   12.3376 C.ar    1  UNL1        0.0208
     33 C          63.2686   84.6677   13.1777 C.ar    1  UNL1        0.0128
     34 C          63.9766   83.5151   12.5296 C.ar    1  UNL1        0.0578
     35 CL         64.7450   82.5386   13.3697 Cl      1  UNL1       -0.0822
     36 C          63.9162   83.3391   11.0412 C.ar    1  UNL1        0.0128
     37 C          63.1478   84.3157   10.2009 C.ar    1  UNL1        0.0208
@<TRIPOS>BOND
     1    19    20    1
     2    20    21    1
     3    20    22    1
     4    22    23    1
     5    20    11    1
     6    11    12    1
     7    12    13    1
     8    13    14    1
     9    14    15   am
    10    15    16    2
    11    15    10    1
    12    10     7    1
    13     1     7    1
    14     1     2    1
    15     2     3    1
    16     3     4    1
    17     4     5    1
    18     5    25    1
    19    25    26    1
    20    26    27    1
    21     5     6    1
    22     6    28    1
    23    28    29    2
    24    28    30    2
    25    28    31    1
    26    31    32   ar
    27    32    33   ar
    28    33    34   ar
    29    34    35    1
    30    34    36   ar
    31    36    37   ar
    32     7     8    1
    33     8     9    1
    34    14    17    1
    35    17    18    1
    36    18    11    1
    37     9     7    1
    38     6     1    1
    39    37    31   ar
    40    27    25    1
    41    23    24    1
@<TRIPOS>MOLECULE
*****
 37 41 0 0 0
SMALL
GASTEIGER

@<TRIPOS>ATOM
      1 C          60.5644   88.5505    9.6645 C.3     1  UNL1        0.1160
      2 C          59.8008   89.5350    8.8294 C.3     1  UNL1        0.0213
      3 C          59.4596   89.2060    7.4063 C.3     1  UNL1        0.0030
      4 C          59.8822   87.8923    6.8182 C.3     1  UNL1        0.0178
      5 C          60.6458   86.9077    7.6533 C.3     1  UNL1        0.0796
      6 N          60.9870   87.2368    9.0765 N.3     1  UNL1       -0.1549
      7 C          60.9055   88.8795   11.0876 C.3     1  UNL1        0.1525
      8 C          59.5314   89.1332   11.6329 C.3     1  UNL1        0.0452
      9 C          60.7284   89.2570   12.5286 C.3     1  UNL1        0.0452
     10 O          62.3982   88.7401   11.0367 O.3     1  UNL1       -0.4404
     11 N          65.3484   93.2436   11.5513 N.3     1  UNL1       -0.2699
     12 C          65.4912   92.5024   12.8475 C.3     1  UNL1        0.0940
     13 C          64.7892   91.1911   13.0429 C.3     1  UNL1        0.1141
     14 N          63.9447   90.6213   11.9420 N.am    1  UNL1       -0.2432
     15 C          63.2428   89.3101   12.1375 C.2     1  UNL1        0.4048
     16 O          63.3855   88.5688   13.4337 O.2     1  UNL1       -0.2262
     17 C          63.8019   91.3625   10.6458 C.3     1  UNL1        0.1141
     18 C          64.5038   92.6737   10.4505 C.3     1  UNL1        0.0940
     19 C          65.6577   94.5490    9.9082 C.3     1  UNL1        0.0186
     20 C          66.0503   94.5548   11.3559 C.3     1  UNL1        0.0726
     21 C          66.4428   94.5605   12.8036 C.3     1  UNL1        0.0186
     22 C          66.7521   95.8660   11.1604 C.3     1  UNL1        0.1516
     23 O          67.4337   96.1650    9.8581 O.3     1  UNL1       -0.3806
     24 H          68.1829   95.5606    9.7390 H       1  UNL1        0.2105
     25 C          61.0684   85.5941    7.0654 C.3     1  UNL1        0.0164
     26 C          60.7149   84.2674    6.4614 C.3     1  UNL1        0.0014
     27 C          62.1540   84.6455    6.6510 C.3     1  UNL1        0.0014
     28 S          61.7506   86.2523    9.9116 S.O2    1  UNL1        0.0633
     29 O          60.8322   85.7792   10.7806 O.2     1  UNL1       -0.1528
     30 O          62.9929   86.5484    9.1247 O.2     1  UNL1       -0.1528
     31 C          62.5144   85.2677   10.7468 C.ar    1  UNL1        0.1223
     32 C          63.3681   84.2266   10.0856 C.ar    1  UNL1        0.0208
     33 C          64.1318   83.2420   10.9207 C.ar    1  UNL1        0.0128
     34 C          64.0420   83.2986   12.4169 C.ar    1  UNL1        0.0578
     35 CL         64.8058   82.3141   13.2520 Cl      1  UNL1       -0.0822
     36 C          63.1883   84.3398   13.0780 C.ar    1  UNL1        0.0128
     37 C          62.4245   85.3244   12.2430 C.ar    1  UNL1        0.0208
@<TRIPOS>BOND
     1    19    20    1
     2    20    21    1
     3    20    22    1
     4    22    23    1
     5    20    11    1
     6    11    12    1
     7    12    13    1
     8    13    14    1
     9    14    15   am
    10    15    16    2
    11    15    10    1
    12    10     7    1
    13     1     7    1
    14     1     2    1
    15     2     3    1
    16     3     4    1
    17     4     5    1
    18     5    25    1
    19    25    26    1
    20    26    27    1
    21     5     6    1
    22     6    28    1
    23    28    29    2
    24    28    30    2
    25    28    31    1
    26    31    32   ar
    27    32    33   ar
    28    33    34   ar
    29    34    35    1
    30    34    36   ar
    31    36    37   ar
    32     7     8    1
    33     8     9    1
    34    14    17    1
    35    17    18    1
    36    18    11    1
    37     9     7    1
    38     6     1    1
    39    37    31   ar
    40    27    25    1
    41    23    24    1
@<TRIPOS>MOLECULE
*****
 37 41 0 0 0
SMALL
GASTEIGER

@<TRIPOS>ATOM
      1 C          63.4291   90.0950   13.5229 C.3     1  UNL1        0.1160
      2 C          62.2488   89.5686   12.7616 C.3     1  UNL1        0.0213
      3 C          62.0414   89.9666   11.3303 C.3     1  UNL1        0.0030
      4 C          63.0144   90.8910   10.6604 C.3     1  UNL1        0.0178
      5 C          64.1947   91.4174   11.4217 C.3     1  UNL1        0.0796
      6 N          64.4021   91.0195   12.8530 N.3     1  UNL1       -0.1549
      7 C          63.6365   89.6970   14.9542 C.3     1  UNL1        0.1525
      8 C          63.2020   90.9579   15.6408 C.3     1  UNL1        0.0452
      9 C          63.6680   89.7849   16.4513 C.3     1  UNL1        0.0452
     10 O          64.1430   88.2979   14.7648 O.3     1  UNL1       -0.4404
     11 N          63.0480   83.1176   13.6622 N.3     1  UNL1       -0.2699
     12 C          62.6159   83.3412   15.0811 C.3     1  UNL1        0.0940
     13 C          62.7817   84.6923   15.7115 C.3     1  UNL1        0.1141
     14 N          63.3795   85.8196   14.9229 N.am    1  UNL1       -0.2432
     15 C          63.5452   87.1706   15.5533 C.2     1  UNL1        0.4048
     16 O          63.1131   87.3943   16.9723 O.2     1  UNL1       -0.2262
     17 C          63.8115   85.5960   13.5040 C.3     1  UNL1        0.1141
     18 C          63.6457   84.2449   12.8736 C.3     1  UNL1        0.0940
     19 C          63.8256   82.1628   11.9350 C.3     1  UNL1        0.0186
     20 C          62.8822   81.7666   13.0318 C.3     1  UNL1        0.0726
     21 C          61.9389   81.3705   14.1286 C.3     1  UNL1        0.0186
     22 C          62.7165   80.4157   12.4014 C.3     1  UNL1        0.1516
     23 O          62.2033   79.2656   13.2163 O.3     1  UNL1       -0.3806
     24 H          62.8485   79.0448   13.9061 H       1  UNL1        0.2105
     25 C          65.1676   92.3419   10.7519 C.3     1  UNL1        0.0164
     26 C          65.4737   93.6627   10.1102 C.3     1  UNL1        0.0014
     27 C          66.5470   92.6220   10.2333 C.3     1  UNL1        0.0014
     28 S          65.5824   91.5459   13.6144 S.O2    1  UNL1        0.0633
     29 O          66.2926   90.4397   13.9219 O.2     1  UNL1       -0.1528
     30 O          65.0634   92.9439   13.4522 O.2     1  UNL1       -0.1528
     31 C          66.7627   92.0724   14.3759 C.ar    1  UNL1        0.1223
     32 C          66.5606   92.7448   15.7014 C.ar    1  UNL1        0.0208
     33 C          67.7409   93.2713   16.4628 C.ar    1  UNL1        0.0128
     34 C          69.1231   93.1255   15.8988 C.ar    1  UNL1        0.0578
     35 CL         70.3033   93.6520   16.6602 Cl      1  UNL1       -0.0822
     36 C          69.3251   92.4530   14.5733 C.ar    1  UNL1        0.0128
     37 C          68.1448   91.9265   13.8117 C.ar    1  UNL1        0.0208
@<TRIPOS>BOND
     1    19    20    1
     2    20    21    1
     3    20    22    1
     4    22    23    1
     5    20    11    1
     6    11    12    1
     7    12    13    1
     8    13    14    1
     9    14    15   am
    10    15    16    2
    11    15    10    1
    12    10     7    1
    13     1     7    1
    14     1     2    1
    15     2     3    1
    16     3     4    1
    17     4     5    1
    18     5    25    1
    19    25    26    1
    20    26    27    1
    21     5     6    1
    22     6    28    1
    23    28    29    2
    24    28    30    2
    25    28    31    1
    26    31    32   ar
    27    32    33   ar
    28    33    34   ar
    29    34    35    1
    30    34    36   ar
    31    36    37   ar
    32     7     8    1
    33     8     9    1
    34    14    17    1
    35    17    18    1
    36    18    11    1
    37     9     7    1
    38     6     1    1
    39    37    31   ar
    40    27    25    1
    41    23    24    1
@<TRIPOS>MOLECULE
*****
 37 41 0 0 0
SMALL
GASTEIGER

@<TRIPOS>ATOM
      1 C          64.3029   90.2590   14.9938 C.3     1  UNL1        0.1160
      2 C          65.2941   90.9505   15.8822 C.3     1  UNL1        0.0213
      3 C          66.1938   92.0107   15.3196 C.3     1  UNL1        0.0030
      4 C          66.1023   92.3794   13.8685 C.3     1  UNL1        0.0178
      5 C          65.1111   91.6880   12.9801 C.3     1  UNL1        0.0796
      6 N          64.2114   90.6278   13.5427 N.3     1  UNL1       -0.1549
      7 C          63.4033   89.1988   15.5564 C.3     1  UNL1        0.1525
      8 C          62.3725   90.0596   16.2248 C.3     1  UNL1        0.0452
      9 C          62.2541   88.5654   16.2833 C.3     1  UNL1        0.0452
     10 O          64.1215   87.9698   15.0835 O.3     1  UNL1       -0.4404
     11 N          63.2175   82.9819   13.1985 N.3     1  UNL1       -0.2699
     12 C          63.1569   82.8788   14.6937 C.3     1  UNL1        0.0940
     13 C          63.3678   84.1001   15.5387 C.3     1  UNL1        0.1141
     14 N          63.6392   85.4243   14.8885 N.am    1  UNL1       -0.2432
     15 C          63.8501   86.6456   15.7336 C.2     1  UNL1        0.4048
     16 O          63.7895   86.5426   17.2289 O.2     1  UNL1       -0.2262
     17 C          63.6997   85.5274   13.3933 C.3     1  UNL1        0.1141
     18 C          63.4889   84.3060   12.5483 C.3     1  UNL1        0.0940
     19 C          63.7262   82.4234   11.2163 C.3     1  UNL1        0.0186
     20 C          63.0066   81.7606   12.3534 C.3     1  UNL1        0.0726
     21 C          62.2871   81.0979   13.4904 C.3     1  UNL1        0.0186
     22 C          62.7958   80.5395   11.5083 C.3     1  UNL1        0.1516
     23 O          63.1004   80.5816   10.0401 O.3     1  UNL1       -0.3806
     24 H          62.4875   81.1913    9.6001 H       1  UNL1        0.2105
     25 C          65.0195   92.0566   11.5290 C.3     1  UNL1        0.0164
     26 C          65.5260   92.8371   10.3525 C.3     1  UNL1        0.0014
     27 C          64.3541   91.9146   10.1921 C.3     1  UNL1        0.0014
     28 S          63.2201   89.9363   12.6543 S.O2    1  UNL1        0.0633
     29 O          63.8273   88.7753   12.3288 O.2     1  UNL1       -0.1528
     30 O          62.2775   91.0933   12.8055 O.2     1  UNL1       -0.1528
     31 C          62.2288   89.2448   11.7659 C.ar    1  UNL1        0.1223
     32 C          62.4277   87.8041   11.3991 C.ar    1  UNL1        0.0208
     33 C          61.4363   87.1126   10.5107 C.ar    1  UNL1        0.0128
     34 C          60.2462   87.8619    9.9891 C.ar    1  UNL1        0.0578
     35 CL         59.2549   87.1705    9.1008 Cl      1  UNL1       -0.0822
     36 C          60.0474   89.3027   10.3559 C.ar    1  UNL1        0.0128
     37 C          61.0387   89.9942   11.2444 C.ar    1  UNL1        0.0208
@<TRIPOS>BOND
     1    19    20    1
     2    20    21    1
     3    20    22    1
     4    22    23    1
     5    20    11    1
     6    11    12    1
     7    12    13    1
     8    13    14    1
     9    14    15   am
    10    15    16    2
    11    15    10    1
    12    10     7    1
    13     1     7    1
    14     1     2    1
    15     2     3    1
    16     3     4    1
    17     4     5    1
    18     5    25    1
    19    25    26    1
    20    26    27    1
    21     5     6    1
    22     6    28    1
    23    28    29    2
    24    28    30    2
    25    28    31    1
    26    31    32   ar
    27    32    33   ar
    28    33    34   ar
    29    34    35    1
    30    34    36   ar
    31    36    37   ar
    32     7     8    1
    33     8     9    1
    34    14    17    1
    35    17    18    1
    36    18    11    1
    37     9     7    1
    38     6     1    1
    39    37    31   ar
    40    27    25    1
    41    23    24    1
@<TRIPOS>MOLECULE
*****
 37 41 0 0 0
SMALL
GASTEIGER

@<TRIPOS>ATOM
      1 C          61.9948   86.8076   10.4274 C.3     1  UNL1        0.1160
      2 C          61.9407   86.6827    8.9337 C.3     1  UNL1        0.0213
      3 C          62.5842   85.5097    8.2554 C.3     1  UNL1        0.0030
      4 C          63.2819   84.4618    9.0709 C.3     1  UNL1        0.0178
      5 C          63.3361   84.5868   10.5647 C.3     1  UNL1        0.0796
      6 N          62.6926   85.7597   11.2430 N.3     1  UNL1       -0.1549
      7 C          61.3513   87.9806   11.1058 C.3     1  UNL1        0.1525
      8 C          59.9274   87.7793   10.6791 C.3     1  UNL1        0.0452
      9 C          60.2909   88.9421   11.5541 C.3     1  UNL1        0.0452
     10 O          62.5516   88.5893   11.7681 O.3     1  UNL1       -0.4404
     11 N          66.0377   92.1948   13.7922 N.3     1  UNL1       -0.2699
     12 C          65.6002   92.7391   12.4647 C.3     1  UNL1        0.0940
     13 C          64.6193   91.9737   11.6268 C.3     1  UNL1        0.1141
     14 N          64.0759   90.6642   12.1165 N.am    1  UNL1       -0.2432
     15 C          63.0950   89.8988   11.2785 C.2     1  UNL1        0.4048
     16 O          62.6575   90.4431    9.9509 O.2     1  UNL1       -0.2262
     17 C          64.5134   90.1199   13.4440 C.3     1  UNL1        0.1141
     18 C          65.4944   90.8853   14.2819 C.3     1  UNL1        0.0940
     19 C          67.4203   91.6901   15.3198 C.3     1  UNL1        0.0186
     20 C          67.0186   92.9602   14.6302 C.3     1  UNL1        0.0726
     21 C          66.6169   94.2302   13.9406 C.3     1  UNL1        0.0186
     22 C          67.9995   93.7254   15.4682 C.3     1  UNL1        0.1516
     23 O          69.0991   93.0002   16.1859 O.3     1  UNL1       -0.3806
     24 H          68.7165   92.4260   16.8676 H       1  UNL1        0.2105
     25 C          64.0338   83.5389   11.3802 C.3     1  UNL1        0.0164
     26 C          64.6911   83.1125   12.6593 C.3     1  UNL1        0.0014
     27 C          64.5849   82.1501   11.5136 C.3     1  UNL1        0.0014
     28 S          62.7467   85.8847   12.7368 S.O2    1  UNL1        0.0633
     29 O          63.8074   86.6897   12.9591 O.2     1  UNL1       -0.1528
     30 O          61.5454   84.9940   12.8548 O.2     1  UNL1       -0.1528
     31 C          62.8007   86.0097   14.2306 C.ar    1  UNL1        0.1223
     32 C          62.1556   84.9666   15.0942 C.ar    1  UNL1        0.0208
     33 C          62.2097   85.0916   16.5881 C.ar    1  UNL1        0.0128
     34 C          62.9087   86.2596   17.2183 C.ar    1  UNL1        0.0578
     35 CL         62.9627   86.3846   18.7120 Cl      1  UNL1       -0.0822
     36 C          63.5537   87.3027   16.3546 C.ar    1  UNL1        0.0128
     37 C          63.4997   87.1777   14.8607 C.ar    1  UNL1        0.0208
@<TRIPOS>BOND
     1    19    20    1
     2    20    21    1
     3    20    22    1
     4    22    23    1
     5    20    11    1
     6    11    12    1
     7    12    13    1
     8    13    14    1
     9    14    15   am
    10    15    16    2
    11    15    10    1
    12    10     7    1
    13     1     7    1
    14     1     2    1
    15     2     3    1
    16     3     4    1
    17     4     5    1
    18     5    25    1
    19    25    26    1
    20    26    27    1
    21     5     6    1
    22     6    28    1
    23    28    29    2
    24    28    30    2
    25    28    31    1
    26    31    32   ar
    27    32    33   ar
    28    33    34   ar
    29    34    35    1
    30    34    36   ar
    31    36    37   ar
    32     7     8    1
    33     8     9    1
    34    14    17    1
    35    17    18    1
    36    18    11    1
    37     9     7    1
    38     6     1    1
    39    37    31   ar
    40    27    25    1
    41    23    24    1
@<TRIPOS>MOLECULE
*****
 37 41 0 0 0
SMALL
GASTEIGER

@<TRIPOS>ATOM
      1 C          63.9023   90.7973   14.0154 C.3     1  UNL1        0.1160
      2 C          63.2158   90.3536   15.2731 C.3     1  UNL1        0.0213
      3 C          63.7236   90.8141   16.6073 C.3     1  UNL1        0.0030
      4 C          64.9179   91.7184   16.6837 C.3     1  UNL1        0.0178
      5 C          65.6044   92.1621   15.4261 C.3     1  UNL1        0.0796
      6 N          65.0966   91.7016   14.0919 N.3     1  UNL1       -0.1549
      7 C          63.3944   90.3367   12.6813 C.3     1  UNL1        0.1525
      8 C          62.8459   91.6283   12.1513 C.3     1  UNL1        0.0452
      9 C          62.7574   90.3802   11.3239 C.3     1  UNL1        0.0452
     10 O          63.7667   88.8852   12.7478 O.3     1  UNL1       -0.4404
     11 N          63.0961   83.5249   13.0095 N.3     1  UNL1       -0.2699
     12 C          62.3521   83.9781   11.7885 C.3     1  UNL1        0.0940
     13 C          62.3337   85.4315   11.4178 C.3     1  UNL1        0.1141
     14 N          63.0594   86.4316   12.2682 N.am    1  UNL1       -0.2432
     15 C          63.0410   87.8850   11.8975 C.2     1  UNL1        0.4048
     16 O          62.2970   88.3382   10.6764 O.2     1  UNL1       -0.2262
     17 C          63.8034   85.9784   13.4892 C.3     1  UNL1        0.1141
     18 C          63.8218   84.5250   13.8599 C.3     1  UNL1        0.0940
     19 C          64.0940   81.8025   12.2765 C.3     1  UNL1        0.0186
     20 C          63.1145   82.0715   13.3803 C.3     1  UNL1        0.0726
     21 C          62.1352   82.3406   14.4840 C.3     1  UNL1        0.0186
     22 C          63.1330   80.6182   13.7510 C.3     1  UNL1        0.1516
     23 O          62.2760   79.6419   13.0009 O.3     1  UNL1       -0.3806
     24 H          61.3407   79.8396   13.1656 H       1  UNL1        0.2105
     25 C          66.7987   93.0664   15.5024 C.3     1  UNL1        0.0164
     26 C          68.0402   93.5218   16.2104 C.3     1  UNL1        0.0014
     27 C          67.6258   94.1774   14.9264 C.3     1  UNL1        0.0014
     28 S          65.7830   92.1452   12.8341 S.O2    1  UNL1        0.0633
     29 O          64.9905   93.1294   12.3590 O.2     1  UNL1       -0.1528
     30 O          66.8620   91.1288   13.0645 O.2     1  UNL1       -0.1528
     31 C          66.4696   92.5888   11.5764 C.ar    1  UNL1        0.1223
     32 C          67.6484   91.8217   11.0549 C.ar    1  UNL1        0.0208
     33 C          68.3349   92.2653    9.7971 C.ar    1  UNL1        0.0128
     34 C          67.8428   93.4759    9.0609 C.ar    1  UNL1        0.0578
     35 CL         68.5293   93.9195    7.8032 Cl      1  UNL1       -0.0822
     36 C          66.6640   94.2430    9.5824 C.ar    1  UNL1        0.0128
     37 C          65.9774   93.7995   10.8402 C.ar    1  UNL1        0.0208
@<TRIPOS>BOND
     1    19    20    1
     2    20    21    1
     3    20    22    1
     4    22    23    1
     5    20    11    1
     6    11    12    1
     7    12    13    1
     8    13    14    1
     9    14    15   am
    10    15    16    2
    11    15    10    1
    12    10     7    1
    13     1     7    1
    14     1     2    1
    15     2     3    1
    16     3     4    1
    17     4     5    1
    18     5    25    1
    19    25    26    1
    20    26    27    1
    21     5     6    1
    22     6    28    1
    23    28    29    2
    24    28    30    2
    25    28    31    1
    26    31    32   ar
    27    32    33   ar
    28    33    34   ar
    29    34    35    1
    30    34    36   ar
    31    36    37   ar
    32     7     8    1
    33     8     9    1
    34    14    17    1
    35    17    18    1
    36    18    11    1
    37     9     7    1
    38     6     1    1
    39    37    31   ar
    40    27    25    1
    41    23    24    1
