@<TRIPOS>MOLECULE
*****
 33 37 0 0 0
SMALL
GASTEIGER

@<TRIPOS>ATOM
      1 C          63.4898   87.3844   15.9332 C.3     1  UNL1        0.0118
      2 C          63.0166   88.6965   16.4850 C.3     1  UNL1        0.0009
      3 C          63.6537   89.9755   16.0287 C.3     1  UNL1        0.0044
      4 C          64.7640   89.9424   15.0206 C.3     1  UNL1        0.0224
      5 C          65.2372   88.6303   14.4689 C.3     1  UNL1        0.0044
      6 C          64.6001   87.3512   14.9252 C.3     1  UNL1        0.0009
      7 C          65.4011   91.2215   14.5643 C.ar    1  UNL1       -0.0195
      8 C          66.3187   91.9719   15.4834 C.ar    1  UNL1        0.0164
      9 C          66.9557   93.2509   15.0271 C.ar    1  UNL1        0.0985
     10 N          66.6751   93.7795   13.6516 N.ar    1  UNL1       -0.2439
     11 C          65.7576   93.0291   12.7325 C.ar    1  UNL1        0.0810
     12 C          65.4770   93.5576   11.3570 C.ar    1  UNL1        0.0190
     13 C          64.5594   92.8072   10.4379 C.ar    1  UNL1        0.0054
     14 C          63.9223   91.5281   10.8942 C.ar    1  UNL1        0.0715
     15 C          64.2029   90.9996   12.2697 C.ar    1  UNL1        0.0050
     16 C          65.1205   91.7501   13.1888 C.ar    1  UNL1        0.0137
     17 C          63.0048   90.7777    9.9751 C.3     1  UNL1        0.4186
     18 F          62.0871   90.0273    9.0559 F       1  UNL1       -0.1659
     19 F          63.1260   89.5626   10.8461 F       1  UNL1       -0.1659
     20 F          62.8835   91.9928    9.1041 F       1  UNL1       -0.1659
     21 C          62.8527   86.1054   16.3896 C.3     1  UNL1        0.1121
     22 C          62.8400   84.9092   15.4846 C.2     1  UNL1        0.3551
     23 N          62.7358   83.4769   15.9178 N.2     1  UNL1        0.0108
     24 C          62.7607   82.6178   14.6884 C.2     1  UNL1        0.4184
     25 N          62.6899   81.1312   14.5012 N.2     1  UNL1       -0.0268
     26 C          62.7387   80.5460   13.1209 C.2     1  UNL1        0.2435
     27 C          62.8583   81.4474   11.9279 C.2     1  UNL1        0.0906
     28 CL         62.9071   80.8621   10.5476 Cl      1  UNL1       -0.0825
     29 C          62.9291   82.9339   12.1152 C.3     1  UNL1        0.1238
     30 C          62.8803   83.5191   13.4954 C.2     1  UNL1        0.2635
     31 N          62.9293   84.9353   13.9875 N.2     1  UNL1       -0.0346
     32 C          62.7021   86.9273   18.8496 C.3     1  UNL1        0.0006
     33 C          62.2284   86.0226   17.7509 C.3     1  UNL1        0.0124
@<TRIPOS>BOND
     1    32    33    1
     2    33    21    1
     3    21    22    1
     4    22    23    2
     5    23    24    1
     6    24    25    2
     7    25    26    1
     8    26    27    2
     9    27    28    1
    10    27    29    1
    11    29    30    1
    12    30    31    2
    13     1    21    1
    14     1     2    1
    15     2     3    1
    16     3     4    1
    17     4     7    1
    18     7     8   ar
    19     8     9   ar
    20     9    10   ar
    21    10    11   ar
    22    11    12   ar
    23    12    13   ar
    24    13    14   ar
    25    14    17    1
    26    17    18    1
    27    17    19    1
    28    17    20    1
    29    14    15   ar
    30    15    16   ar
    31     4     5    1
    32     5     6    1
    33    31    22    1
    34     6     1    1
    35    30    24    1
    36    16     7   ar
    37    16    11   ar
@<TRIPOS>MOLECULE
*****
 33 37 0 0 0
SMALL
GASTEIGER

@<TRIPOS>ATOM
      1 C          62.8627   87.7396   11.8428 C.3     1  UNL1        0.0118
      2 C          62.5578   89.1968   11.6586 C.3     1  UNL1        0.0009
      3 C          63.0314   90.1961   12.6721 C.3     1  UNL1        0.0044
      4 C          63.8099   89.7383   13.8697 C.3     1  UNL1        0.0224
      5 C          64.1148   88.2812   14.0539 C.3     1  UNL1        0.0044
      6 C          63.6411   87.2818   13.0405 C.3     1  UNL1        0.0009
      7 C          64.2835   90.7376   14.8832 C.ar    1  UNL1       -0.0195
      8 C          63.5495   90.8942   16.1819 C.ar    1  UNL1        0.0164
      9 C          64.0231   91.8935   17.1953 C.ar    1  UNL1        0.0985
     10 N          65.2308   92.7362   16.9100 N.ar    1  UNL1       -0.2439
     11 C          65.9648   92.5797   15.6113 C.ar    1  UNL1        0.0810
     12 C          67.1724   93.4224   15.3260 C.ar    1  UNL1        0.0190
     13 C          67.9064   93.2658   14.0273 C.ar    1  UNL1        0.0054
     14 C          67.4328   92.2665   13.0138 C.ar    1  UNL1        0.0715
     15 C          66.2252   91.4237   13.2991 C.ar    1  UNL1        0.0050
     16 C          65.4911   91.5804   14.5979 C.ar    1  UNL1        0.0137
     17 C          68.1668   92.1099   11.7151 C.3     1  UNL1        0.4186
     18 F          68.9009   91.9533   10.4163 F       1  UNL1       -0.1659
     19 F          67.1399   92.9635   11.0318 F       1  UNL1       -0.1659
     20 F          69.1937   91.2563   12.3984 F       1  UNL1       -0.1659
     21 C          62.3891   86.7404   10.8294 C.3     1  UNL1        0.1121
     22 C          62.5245   85.2719   11.1039 C.2     1  UNL1        0.3551
     23 N          63.0766   84.2457   10.1595 N.2     1  UNL1        0.0108
     24 C          63.0249   82.9114   10.8429 C.2     1  UNL1        0.4184
     25 N          63.4343   81.5389   10.3973 N.2     1  UNL1       -0.0268
     26 C          63.2595   80.3681   11.3184 C.2     1  UNL1        0.2435
     27 C          62.6754   80.5697   12.6852 C.2     1  UNL1        0.0906
     28 CL         62.5006   79.3988   13.6064 Cl      1  UNL1       -0.0825
     29 C          62.2661   81.9422   13.1309 C.3     1  UNL1        0.1238
     30 C          62.4408   83.1130   12.2097 C.2     1  UNL1        0.2635
     31 N          62.1316   84.5719   12.3710 N.2     1  UNL1       -0.0346
     32 C          60.5636   86.5239    8.9934 C.3     1  UNL1        0.0006
     33 C          61.7800   87.2095    9.5414 C.3     1  UNL1        0.0124
@<TRIPOS>BOND
     1    32    33    1
     2    33    21    1
     3    21    22    1
     4    22    23    2
     5    23    24    1
     6    24    25    2
     7    25    26    1
     8    26    27    2
     9    27    28    1
    10    27    29    1
    11    29    30    1
    12    30    31    2
    13     1    21    1
    14     1     2    1
    15     2     3    1
    16     3     4    1
    17     4     7    1
    18     7     8   ar
    19     8     9   ar
    20     9    10   ar
    21    10    11   ar
    22    11    12   ar
    23    12    13   ar
    24    13    14   ar
    25    14    17    1
    26    17    18    1
    27    17    19    1
    28    17    20    1
    29    14    15   ar
    30    15    16   ar
    31     4     5    1
    32     5     6    1
    33    31    22    1
    34     6     1    1
    35    30    24    1
    36    16     7   ar
    37    16    11   ar
@<TRIPOS>MOLECULE
*****
 33 37 0 0 0
SMALL
GASTEIGER

@<TRIPOS>ATOM
      1 C          63.6890   86.8044   14.5450 C.3     1  UNL1        0.0118
      2 C          63.2179   86.8764   13.1227 C.3     1  UNL1        0.0009
      3 C          63.3839   88.1458   12.3410 C.3     1  UNL1        0.0044
      4 C          64.0210   89.3432   12.9816 C.3     1  UNL1        0.0224
      5 C          64.4921   89.2712   14.4039 C.3     1  UNL1        0.0044
      6 C          64.3261   88.0018   15.1856 C.3     1  UNL1        0.0009
      7 C          64.1869   90.6127   12.1999 C.ar    1  UNL1       -0.0195
      8 C          63.4115   90.8200   10.9328 C.ar    1  UNL1        0.0164
      9 C          63.5775   92.0894   10.1511 C.ar    1  UNL1        0.0985
     10 N          64.5189   93.1515   10.6366 N.ar    1  UNL1       -0.2439
     11 C          65.2943   92.9442   11.9038 C.ar    1  UNL1        0.0810
     12 C          66.2357   94.0063   12.3893 C.ar    1  UNL1        0.0190
     13 C          67.0111   93.7990   13.6565 C.ar    1  UNL1        0.0054
     14 C          66.8451   92.5296   14.4382 C.ar    1  UNL1        0.0715
     15 C          65.9037   91.4675   13.9527 C.ar    1  UNL1        0.0050
     16 C          65.1283   91.6748   12.6854 C.ar    1  UNL1        0.0137
     17 C          67.6205   92.3223   15.7054 C.3     1  UNL1        0.4186
     18 F          68.3959   92.1149   16.9726 F       1  UNL1       -0.1659
     19 F          67.5507   93.7936   15.9888 F       1  UNL1       -0.1659
     20 F          67.6903   90.8510   15.4219 F       1  UNL1       -0.1659
     21 C          63.5231   85.5350   15.3266 C.3     1  UNL1        0.1121
     22 C          63.3209   84.2333   14.6091 C.2     1  UNL1        0.3551
     23 N          62.9054   82.9358   15.2366 N.2     1  UNL1        0.0108
     24 C          62.8264   81.9012   14.1534 C.2     1  UNL1        0.4184
     25 N          62.4680   80.4450   14.1805 N.2     1  UNL1       -0.0268
     26 C          62.4763   79.6468   12.9106 C.2     1  UNL1        0.2435
     27 C          62.8429   80.3049   11.6135 C.2     1  UNL1        0.0906
     28 CL         62.8512   79.5067   10.3435 Cl      1  UNL1       -0.0825
     29 C          63.2014   81.7612   11.5864 C.3     1  UNL1        0.1238
     30 C          63.1931   82.5593   12.8563 C.2     1  UNL1        0.2635
     31 N          63.4987   84.0006   13.1379 N.2     1  UNL1       -0.0346
     32 C          62.5153   86.3313   17.5850 C.3     1  UNL1        0.0006
     33 C          63.5593   85.5672   16.8258 C.3     1  UNL1        0.0124
@<TRIPOS>BOND
     1    32    33    1
     2    33    21    1
     3    21    22    1
     4    22    23    2
     5    23    24    1
     6    24    25    2
     7    25    26    1
     8    26    27    2
     9    27    28    1
    10    27    29    1
    11    29    30    1
    12    30    31    2
    13     1    21    1
    14     1     2    1
    15     2     3    1
    16     3     4    1
    17     4     7    1
    18     7     8   ar
    19     8     9   ar
    20     9    10   ar
    21    10    11   ar
    22    11    12   ar
    23    12    13   ar
    24    13    14   ar
    25    14    17    1
    26    17    18    1
    27    17    19    1
    28    17    20    1
    29    14    15   ar
    30    15    16   ar
    31     4     5    1
    32     5     6    1
    33    31    22    1
    34     6     1    1
    35    30    24    1
    36    16     7   ar
    37    16    11   ar
@<TRIPOS>MOLECULE
*****
 33 37 0 0 0
SMALL
GASTEIGER

@<TRIPOS>ATOM
      1 C          60.9784   88.6525    9.8252 C.3     1  UNL1        0.0118
      2 C          60.6179   89.9830   10.4166 C.3     1  UNL1        0.0009
      3 C          61.3643   90.5002   11.6105 C.3     1  UNL1        0.0044
      4 C          62.4712   89.6868   12.2130 C.3     1  UNL1        0.0224
      5 C          62.8318   88.3563   11.6217 C.3     1  UNL1        0.0044
      6 C          62.0854   87.8391   10.4277 C.3     1  UNL1        0.0009
      7 C          63.2177   90.2040   13.4070 C.ar    1  UNL1       -0.0195
      8 C          62.8666   89.7145   14.7807 C.ar    1  UNL1        0.0164
      9 C          63.6130   90.2317   15.9746 C.ar    1  UNL1        0.0985
     10 N          64.7104   91.2383   15.7947 N.ar    1  UNL1       -0.2439
     11 C          65.0615   91.7278   14.4210 C.ar    1  UNL1        0.0810
     12 C          66.1589   92.7344   14.2412 C.ar    1  UNL1        0.0190
     13 C          66.5099   93.2239   12.8674 C.ar    1  UNL1        0.0054
     14 C          65.7635   92.7067   11.6735 C.ar    1  UNL1        0.0715
     15 C          64.6661   91.7001   11.8533 C.ar    1  UNL1        0.0050
     16 C          64.3151   91.2106   13.2271 C.ar    1  UNL1        0.0137
     17 C          66.1145   93.1962   10.2998 C.3     1  UNL1        0.4186
     18 F          66.4655   93.6857    8.9260 F       1  UNL1       -0.1659
     19 F          67.0625   92.0459   10.1321 F       1  UNL1       -0.1659
     20 F          65.1666   94.3465   10.4674 F       1  UNL1       -0.1659
     21 C          60.2321   88.1354    8.6313 C.3     1  UNL1        0.1121
     22 C          59.8468   89.0715    7.5244 C.2     1  UNL1        0.3551
     23 N          58.4477   89.4318    7.1212 N.2     1  UNL1        0.0108
     24 C          58.5292   90.3947    5.9739 C.2     1  UNL1        0.4184
     25 N          57.4708   91.0880    5.1683 N.2     1  UNL1       -0.0268
     26 C          57.8619   92.0161    4.0568 C.2     1  UNL1        0.2435
     27 C          59.3115   92.2509    3.7508 C.2     1  UNL1        0.0906
     28 CL         59.7026   93.1790    2.6392 Cl      1  UNL1       -0.0825
     29 C          60.3699   91.5576    4.5565 C.3     1  UNL1        0.1238
     30 C          59.9788   90.6295    5.6680 C.2     1  UNL1        0.2635
     31 N          60.7931   89.8117    6.6262 N.2     1  UNL1       -0.0346
     32 C          60.5700   85.7932    7.5588 C.3     1  UNL1        0.0006
     33 C          59.8709   86.6821    8.5443 C.3     1  UNL1        0.0124
@<TRIPOS>BOND
     1    32    33    1
     2    33    21    1
     3    21    22    1
     4    22    23    2
     5    23    24    1
     6    24    25    2
     7    25    26    1
     8    26    27    2
     9    27    28    1
    10    27    29    1
    11    29    30    1
    12    30    31    2
    13     1    21    1
    14     1     2    1
    15     2     3    1
    16     3     4    1
    17     4     7    1
    18     7     8   ar
    19     8     9   ar
    20     9    10   ar
    21    10    11   ar
    22    11    12   ar
    23    12    13   ar
    24    13    14   ar
    25    14    17    1
    26    17    18    1
    27    17    19    1
    28    17    20    1
    29    14    15   ar
    30    15    16   ar
    31     4     5    1
    32     5     6    1
    33    31    22    1
    34     6     1    1
    35    30    24    1
    36    16     7   ar
    37    16    11   ar
@<TRIPOS>MOLECULE
*****
 33 37 0 0 0
SMALL
GASTEIGER

@<TRIPOS>ATOM
      1 C          60.4305   89.0527    8.6458 C.3     1  UNL1        0.0118
      2 C          61.5460   88.0677    8.8343 C.3     1  UNL1        0.0009
      3 C          62.4096   88.1380   10.0587 C.3     1  UNL1        0.0044
      4 C          62.1577   89.1932   11.0947 C.3     1  UNL1        0.0224
      5 C          61.0423   90.1781   10.9062 C.3     1  UNL1        0.0044
      6 C          60.1786   90.1079    9.6817 C.3     1  UNL1        0.0009
      7 C          63.0214   89.2633   12.3191 C.ar    1  UNL1       -0.0195
      8 C          63.4698   90.5945   12.8453 C.ar    1  UNL1        0.0164
      9 C          64.3334   90.6646   14.0697 C.ar    1  UNL1        0.0985
     10 N          64.7486   89.4036   14.7679 N.ar    1  UNL1       -0.2439
     11 C          64.3002   88.0725   14.2417 C.ar    1  UNL1        0.0810
     12 C          64.7154   86.8115   14.9399 C.ar    1  UNL1        0.0190
     13 C          64.2670   85.4803   14.4137 C.ar    1  UNL1        0.0054
     14 C          63.4033   85.4101   13.1892 C.ar    1  UNL1        0.0715
     15 C          62.9881   86.6711   12.4910 C.ar    1  UNL1        0.0050
     16 C          63.4366   88.0023   13.0173 C.ar    1  UNL1        0.0137
     17 C          62.9549   84.0790   12.6630 C.3     1  UNL1        0.4186
     18 F          62.5065   82.7478   12.1368 F       1  UNL1       -0.1659
     19 F          62.9714   83.5228   14.0560 F       1  UNL1       -0.1659
     20 F          62.9384   84.6352   11.2701 F       1  UNL1       -0.1659
     21 C          59.5669   88.9825    7.4214 C.3     1  UNL1        0.1121
     22 C          59.7884   89.9436    6.2912 C.2     1  UNL1        0.3551
     23 N          58.7469   90.8222    5.6640 N.2     1  UNL1        0.0108
     24 C          59.4051   91.6165    4.5750 C.2     1  UNL1        0.4184
     25 N          58.8727   92.6426    3.6192 N.2     1  UNL1       -0.0268
     26 C          59.7887   93.2811    2.6176 C.2     1  UNL1        0.2435
     27 C          61.2370   92.8934    2.5717 C.2     1  UNL1        0.0906
     28 CL         62.1530   93.5319    1.5700 Cl      1  UNL1       -0.0825
     29 C          61.7693   91.8672    3.5275 C.3     1  UNL1        0.1238
     30 C          60.8534   91.2287    4.5291 C.2     1  UNL1        0.2635
     31 N          61.0902   90.1949    5.5898 N.2     1  UNL1       -0.0346
     32 C          58.7310   86.5538    7.8121 C.3     1  UNL1        0.0006
     33 C          58.4818   87.9512    7.3271 C.3     1  UNL1        0.0124
@<TRIPOS>BOND
     1    32    33    1
     2    33    21    1
     3    21    22    1
     4    22    23    2
     5    23    24    1
     6    24    25    2
     7    25    26    1
     8    26    27    2
     9    27    28    1
    10    27    29    1
    11    29    30    1
    12    30    31    2
    13     1    21    1
    14     1     2    1
    15     2     3    1
    16     3     4    1
    17     4     7    1
    18     7     8   ar
    19     8     9   ar
    20     9    10   ar
    21    10    11   ar
    22    11    12   ar
    23    12    13   ar
    24    13    14   ar
    25    14    17    1
    26    17    18    1
    27    17    19    1
    28    17    20    1
    29    14    15   ar
    30    15    16   ar
    31     4     5    1
    32     5     6    1
    33    31    22    1
    34     6     1    1
    35    30    24    1
    36    16     7   ar
    37    16    11   ar
@<TRIPOS>MOLECULE
*****
 33 37 0 0 0
SMALL
GASTEIGER

@<TRIPOS>ATOM
      1 C          62.1686   88.5031   10.6463 C.3     1  UNL1        0.0118
      2 C          62.7797   88.0020   11.9214 C.3     1  UNL1        0.0009
      3 C          63.0703   86.5402   12.0900 C.3     1  UNL1        0.0044
      4 C          62.7498   85.5793   10.9837 C.3     1  UNL1        0.0224
      5 C          62.1388   86.0802    9.7087 C.3     1  UNL1        0.0044
      6 C          61.8482   87.5421    9.5400 C.3     1  UNL1        0.0009
      7 C          63.0405   84.1174   11.1524 C.ar    1  UNL1       -0.0195
      8 C          63.2810   83.2566    9.9478 C.ar    1  UNL1        0.0164
      9 C          63.5716   81.7948   10.1165 C.ar    1  UNL1        0.0985
     10 N          63.6217   81.1937   11.4899 N.ar    1  UNL1       -0.2439
     11 C          63.3812   82.0544   12.6945 C.ar    1  UNL1        0.0810
     12 C          63.4313   81.4533   14.0679 C.ar    1  UNL1        0.0190
     13 C          63.1908   82.3141   15.2725 C.ar    1  UNL1        0.0054
     14 C          62.9001   83.7760   15.1038 C.ar    1  UNL1        0.0715
     15 C          62.8500   84.3771   13.7305 C.ar    1  UNL1        0.0050
     16 C          63.0906   83.5163   12.5258 C.ar    1  UNL1        0.0137
     17 C          62.6596   84.6368   16.3085 C.3     1  UNL1        0.4186
     18 F          62.4191   85.4976   17.5132 F       1  UNL1       -0.1659
     19 F          61.2037   84.7208   15.9577 F       1  UNL1       -0.1659
     20 F          64.1156   84.5527   16.6592 F       1  UNL1       -0.1659
     21 C          61.8780   89.9649   10.4777 C.3     1  UNL1        0.1121
     22 C          62.9450   90.9796   10.7639 C.2     1  UNL1        0.3551
     23 N          63.6111   91.2091   12.0881 N.2     1  UNL1        0.0108
     24 C          64.6110   92.3143   11.9187 C.2     1  UNL1        0.4184
     25 N          65.5591   92.9662   12.8810 N.2     1  UNL1       -0.0268
     26 C          66.4591   94.0717   12.4144 C.2     1  UNL1        0.2435
     27 C          66.4109   94.5254   10.9854 C.2     1  UNL1        0.0906
     28 CL         67.3109   95.6310   10.5188 Cl      1  UNL1       -0.0825
     29 C          65.4628   93.8735   10.0231 C.3     1  UNL1        0.1238
     30 C          64.5629   92.7679   10.4898 C.2     1  UNL1        0.2635
     31 N          63.5332   91.9430    9.7761 N.2     1  UNL1       -0.0346
     32 C          59.4212   90.6097   11.0244 C.3     1  UNL1        0.0006
     33 C          60.5204   90.4120   10.0229 C.3     1  UNL1        0.0124
@<TRIPOS>BOND
     1    32    33    1
     2    33    21    1
     3    21    22    1
     4    22    23    2
     5    23    24    1
     6    24    25    2
     7    25    26    1
     8    26    27    2
     9    27    28    1
    10    27    29    1
    11    29    30    1
    12    30    31    2
    13     1    21    1
    14     1     2    1
    15     2     3    1
    16     3     4    1
    17     4     7    1
    18     7     8   ar
    19     8     9   ar
    20     9    10   ar
    21    10    11   ar
    22    11    12   ar
    23    12    13   ar
    24    13    14   ar
    25    14    17    1
    26    17    18    1
    27    17    19    1
    28    17    20    1
    29    14    15   ar
    30    15    16   ar
    31     4     5    1
    32     5     6    1
    33    31    22    1
    34     6     1    1
    35    30    24    1
    36    16     7   ar
    37    16    11   ar
@<TRIPOS>MOLECULE
*****
 33 37 0 0 0
SMALL
GASTEIGER

@<TRIPOS>ATOM
      1 C          63.5598   86.6259   13.1699 C.3     1  UNL1        0.0118
      2 C          63.1960   87.9135   12.4916 C.3     1  UNL1        0.0009
      3 C          63.5229   89.2237   13.1447 C.3     1  UNL1        0.0044
      4 C          64.2136   89.2464   14.4760 C.3     1  UNL1        0.0224
      5 C          64.5773   87.9590   15.1543 C.3     1  UNL1        0.0044
      6 C          64.2504   86.6487   14.5013 C.3     1  UNL1        0.0009
      7 C          64.5405   90.5567   15.1291 C.ar    1  UNL1       -0.0195
      8 C          64.0010   90.8700   16.4932 C.ar    1  UNL1        0.0164
      9 C          64.3279   92.1802   17.1462 C.ar    1  UNL1        0.0985
     10 N          65.1943   93.1771   16.4350 N.ar    1  UNL1       -0.2439
     11 C          65.7337   92.8638   15.0709 C.ar    1  UNL1        0.0810
     12 C          66.6000   93.8607   14.3598 C.ar    1  UNL1        0.0190
     13 C          67.1395   93.5473   12.9957 C.ar    1  UNL1        0.0054
     14 C          66.8126   92.2370   12.3427 C.ar    1  UNL1        0.0715
     15 C          65.9462   91.2402   13.0538 C.ar    1  UNL1        0.0050
     16 C          65.4068   91.5536   14.4180 C.ar    1  UNL1        0.0137
     17 C          67.3520   91.9237   10.9786 C.3     1  UNL1        0.4186
     18 F          67.8915   91.6104    9.6144 F       1  UNL1       -0.1659
     19 F          66.0142   92.2378   10.3774 F       1  UNL1       -0.1659
     20 F          68.6898   91.6096   11.5798 F       1  UNL1       -0.1659
     21 C          63.2329   85.3158   12.5169 C.3     1  UNL1        0.1121
     22 C          62.7151   85.2879   11.1094 C.2     1  UNL1        0.3551
     23 N          61.4238   85.8842   10.6329 N.2     1  UNL1        0.0108
     24 C          61.3084   85.6236    9.1602 C.2     1  UNL1        0.4184
     25 N          60.2500   85.9781    8.1582 N.2     1  UNL1       -0.0268
     26 C          60.4116   85.5753    6.7224 C.2     1  UNL1        0.2435
     27 C          61.6315   84.8179    6.2886 C.2     1  UNL1        0.0906
     28 CL         61.7931   84.4151    4.8528 Cl      1  UNL1       -0.0825
     29 C          62.6899   84.4634    7.2907 C.3     1  UNL1        0.1238
     30 C          62.5283   84.8663    8.7265 C.2     1  UNL1        0.2635
     31 N          63.3977   84.6588    9.9311 N.2     1  UNL1       -0.0346
     32 C          62.3775   83.5715   14.2421 C.3     1  UNL1        0.0006
     33 C          63.4237   84.0335   13.2714 C.3     1  UNL1        0.0124
@<TRIPOS>BOND
     1    32    33    1
     2    33    21    1
     3    21    22    1
     4    22    23    2
     5    23    24    1
     6    24    25    2
     7    25    26    1
     8    26    27    2
     9    27    28    1
    10    27    29    1
    11    29    30    1
    12    30    31    2
    13     1    21    1
    14     1     2    1
    15     2     3    1
    16     3     4    1
    17     4     7    1
    18     7     8   ar
    19     8     9   ar
    20     9    10   ar
    21    10    11   ar
    22    11    12   ar
    23    12    13   ar
    24    13    14   ar
    25    14    17    1
    26    17    18    1
    27    17    19    1
    28    17    20    1
    29    14    15   ar
    30    15    16   ar
    31     4     5    1
    32     5     6    1
    33    31    22    1
    34     6     1    1
    35    30    24    1
    36    16     7   ar
    37    16    11   ar
@<TRIPOS>MOLECULE
*****
 33 37 0 0 0
SMALL
GASTEIGER

@<TRIPOS>ATOM
      1 C          62.2674   88.7383   10.7252 C.3     1  UNL1        0.0118
      2 C          63.1101   88.8343   11.9625 C.3     1  UNL1        0.0009
      3 C          64.0277   90.0049   12.1559 C.3     1  UNL1        0.0044
      4 C          64.1028   91.0796   11.1122 C.3     1  UNL1        0.0224
      5 C          63.2601   90.9837    9.8750 C.3     1  UNL1        0.0044
      6 C          62.3424   89.8130    9.6815 C.3     1  UNL1        0.0009
      7 C          65.0205   92.2503   11.3057 C.ar    1  UNL1       -0.0195
      8 C          65.5411   92.9999   10.1153 C.ar    1  UNL1        0.0164
      9 C          66.4588   94.1705   10.3089 C.ar    1  UNL1        0.0985
     10 N          66.8558   94.5915   11.6927 N.ar    1  UNL1       -0.2439
     11 C          66.3351   93.8419   12.8831 C.ar    1  UNL1        0.0810
     12 C          66.7321   94.2630   14.2670 C.ar    1  UNL1        0.0190
     13 C          66.2115   93.5134   15.4573 C.ar    1  UNL1        0.0054
     14 C          65.2938   92.3427   15.2638 C.ar    1  UNL1        0.0715
     15 C          64.8968   91.9217   13.8799 C.ar    1  UNL1        0.0050
     16 C          65.4175   92.6713   12.6896 C.ar    1  UNL1        0.0137
     17 C          64.7731   91.5931   16.4542 C.3     1  UNL1        0.4186
     18 F          64.2524   90.8434   17.6446 F       1  UNL1       -0.1659
     19 F          65.1957   92.7204   17.3489 F       1  UNL1       -0.1659
     20 F          64.3505   90.4658   15.5594 F       1  UNL1       -0.1659
     21 C          61.3497   87.5677   10.5318 C.3     1  UNL1        0.1121
     22 C          61.8209   86.1826   10.8628 C.2     1  UNL1        0.3551
     23 N          62.4109   85.1977    9.8975 N.2     1  UNL1        0.0108
     24 C          62.7395   83.9456   10.6554 C.2     1  UNL1        0.4184
     25 N          63.3410   82.6406   10.2251 N.2     1  UNL1       -0.0268
     26 C          63.5555   81.5467   11.2287 C.2     1  UNL1        0.2435
     27 C          63.1686   81.7578   12.6625 C.2     1  UNL1        0.0906
     28 CL         63.3832   80.6637   13.6661 Cl      1  UNL1       -0.0825
     29 C          62.5671   83.0627   13.0927 C.3     1  UNL1        0.1238
     30 C          62.3525   84.1567   12.0892 C.2     1  UNL1        0.2635
     31 N          61.7849   85.5392   12.2174 N.2     1  UNL1       -0.0346
     32 C          59.5656   87.2135    8.6767 C.3     1  UNL1        0.0006
     33 C          59.9609   87.7821   10.0073 C.3     1  UNL1        0.0124
@<TRIPOS>BOND
     1    32    33    1
     2    33    21    1
     3    21    22    1
     4    22    23    2
     5    23    24    1
     6    24    25    2
     7    25    26    1
     8    26    27    2
     9    27    28    1
    10    27    29    1
    11    29    30    1
    12    30    31    2
    13     1    21    1
    14     1     2    1
    15     2     3    1
    16     3     4    1
    17     4     7    1
    18     7     8   ar
    19     8     9   ar
    20     9    10   ar
    21    10    11   ar
    22    11    12   ar
    23    12    13   ar
    24    13    14   ar
    25    14    17    1
    26    17    18    1
    27    17    19    1
    28    17    20    1
    29    14    15   ar
    30    15    16   ar
    31     4     5    1
    32     5     6    1
    33    31    22    1
    34     6     1    1
    35    30    24    1
    36    16     7   ar
    37    16    11   ar
@<TRIPOS>MOLECULE
*****
 33 37 0 0 0
SMALL
GASTEIGER

@<TRIPOS>ATOM
      1 C          59.8432   91.6363    4.3304 C.3     1  UNL1        0.0118
      2 C          61.2559   91.1319    4.3275 C.3     1  UNL1        0.0009
      3 C          62.2519   91.6967    3.3585 C.3     1  UNL1        0.0044
      4 C          61.8353   92.7659    2.3924 C.3     1  UNL1        0.0224
      5 C          60.4227   93.2703    2.3953 C.3     1  UNL1        0.0044
      6 C          59.4266   92.7055    3.3644 C.3     1  UNL1        0.0009
      7 C          62.8314   93.3307    1.4234 C.ar    1  UNL1       -0.0195
      8 C          64.1970   93.7295    1.8986 C.ar    1  UNL1        0.0164
      9 C          65.1930   94.2942    0.9296 C.ar    1  UNL1        0.0985
     10 N          64.8233   94.4602   -0.5146 N.ar    1  UNL1       -0.2439
     11 C          63.4577   94.0613   -0.9899 C.ar    1  UNL1        0.0810
     12 C          63.0880   94.2272   -2.4341 C.ar    1  UNL1        0.0190
     13 C          61.7224   93.8284   -2.9093 C.ar    1  UNL1        0.0054
     14 C          60.7263   93.2636   -1.9403 C.ar    1  UNL1        0.0715
     15 C          61.0960   93.0977   -0.4961 C.ar    1  UNL1        0.0050
     16 C          62.4617   93.4966   -0.0209 C.ar    1  UNL1        0.0137
     17 C          59.3606   92.8648   -2.4155 C.3     1  UNL1        0.4186
     18 F          57.9949   92.4659   -2.8907 F       1  UNL1       -0.1659
     19 F          59.6315   93.5152   -3.7397 F       1  UNL1       -0.1659
     20 F          59.0898   92.2143   -1.0913 F       1  UNL1       -0.1659
     21 C          58.8473   91.0715    5.2994 C.3     1  UNL1        0.1121
     22 C          59.2757   90.0377    6.2982 C.2     1  UNL1        0.3551
     23 N          59.1859   88.5508    6.1218 N.2     1  UNL1        0.0108
     24 C          59.7239   87.9033    7.3633 C.2     1  UNL1        0.4184
     25 N          59.8838   86.4647    7.7564 N.2     1  UNL1       -0.0268
     26 C          60.4660   86.1127    9.0932 C.2     1  UNL1        0.2435
     27 C          60.8882   87.1994   10.0370 C.2     1  UNL1        0.0906
     28 CL         61.4704   86.8474   11.3739 Cl      1  UNL1       -0.0825
     29 C          60.7283   88.6381    9.6439 C.3     1  UNL1        0.1238
     30 C          60.1461   88.9901    8.3071 C.2     1  UNL1        0.2635
     31 N          59.8691   90.3092    7.6488 N.2     1  UNL1       -0.0346
     32 C          56.3037   90.5421    5.2937 C.3     1  UNL1        0.0006
     33 C          57.4228   91.5406    5.2696 C.3     1  UNL1        0.0124
@<TRIPOS>BOND
     1    32    33    1
     2    33    21    1
     3    21    22    1
     4    22    23    2
     5    23    24    1
     6    24    25    2
     7    25    26    1
     8    26    27    2
     9    27    28    1
    10    27    29    1
    11    29    30    1
    12    30    31    2
    13     1    21    1
    14     1     2    1
    15     2     3    1
    16     3     4    1
    17     4     7    1
    18     7     8   ar
    19     8     9   ar
    20     9    10   ar
    21    10    11   ar
    22    11    12   ar
    23    12    13   ar
    24    13    14   ar
    25    14    17    1
    26    17    18    1
    27    17    19    1
    28    17    20    1
    29    14    15   ar
    30    15    16   ar
    31     4     5    1
    32     5     6    1
    33    31    22    1
    34     6     1    1
    35    30    24    1
    36    16     7   ar
    37    16    11   ar
