@<TRIPOS>MOLECULE
*****
 36 39 0 0 0
SMALL
GASTEIGER

@<TRIPOS>ATOM
      1 C          63.5219   87.2263   16.1589 C.3     1  UNL1        0.1812
      2 O          63.9170   87.2863   14.7132 O.3     1  UNL1       -0.3784
      3 H          64.1827   86.4028   14.4137 H       1  UNL1        0.2106
      4 C          63.1268   87.1664   17.6047 C.3     1  UNL1        0.4197
      5 F          62.7317   87.1064   19.0505 F       1  UNL1       -0.1676
      6 F          62.7536   88.6187   17.5630 F       1  UNL1       -0.1676
      7 F          63.5000   85.7142   17.6464 F       1  UNL1       -0.1676
      8 C          63.8180   85.7559   16.1789 C.3     1  UNL1        0.0399
      9 C          63.5616   84.9227   14.9583 C.3     1  UNL1        0.0244
     10 C          65.0111   85.0229   14.5854 C.3     1  UNL1        0.0046
     11 C          62.1122   84.8224   15.3311 C.3     1  UNL1        0.0046
     12 C          62.9939   84.7525   12.4287 C.ar    1  UNL1        0.1348
     13 C          62.7375   83.9192   11.2081 C.ar    1  UNL1        0.0389
     14 C          62.7926   82.4229   11.2963 C.ar    1  UNL1        0.0327
     15 C          63.1041   81.7597   12.6053 C.ar    1  UNL1        0.1400
     16 F          63.1592   80.2633   12.6935 F       1  UNL1       -0.2042
     17 C          63.3604   82.5930   13.8259 C.ar    1  UNL1        0.0283
     18 C          63.3053   84.0894   13.7376 C.ar    1  UNL1        0.0135
     19 C          62.2200   86.9070   11.2001 C.3     1  UNL1        0.2525
     20 O          62.9387   86.2489   12.3404 O.3     1  UNL1       -0.4717
     21 C          63.2259   88.6967   16.1390 C.3     1  UNL1        0.0811
     22 C          63.5589   89.5123   14.9250 C.2     1  UNL1        0.0614
     23 C          64.6938   90.4853   14.8005 C.2     1  UNL1        0.0163
     24 C          64.6518   91.0726   13.4209 C.2     1  UNL1        0.0264
     25 C          65.5206   92.0839   12.7337 C.2     1  UNL1        0.0903
     26 C          65.2284   92.4853   11.3182 C.2     1  UNL1        0.3192
     27 N          64.0676   91.8754   10.5900 N.2     1  UNL1       -0.0585
     28 C          63.1988   90.8640   11.2772 C.3     1  UNL1        0.3085
     29 C          63.4908   90.4626   12.6927 C.2     1  UNL1        0.1121
     30 N          62.8154   89.4983   13.6223 N.2     1  UNL1       -0.2495
     31 N          66.0972   93.4967   10.6309 N.pl3   1  UNL1       -0.1860
     32 C          65.8337   94.9617   10.8167 C.3     1  UNL1        0.2346
     33 C          66.7025   95.9731   10.1295 C.3     1  UNL1        0.1929
     34 O          67.8348   95.5194    9.2564 O.3     1  UNL1       -0.3449
     35 C          68.0983   94.0545    9.0706 C.3     1  UNL1        0.1929
     36 C          67.2295   93.0432    9.7579 C.3     1  UNL1        0.2346
@<TRIPOS>BOND
     1    19    20    1
     2    20    12    1
     3    12    13   ar
     4    13    14   ar
     5    14    15   ar
     6    15    16    1
     7    15    17   ar
     8    17    18   ar
     9    18     9    1
    10     9    10    1
    11     9    11    1
    12     9     8    1
    13     8     1    1
    14     1     2    1
    15     1    21    1
    16    21    22    1
    17    22    23    2
    18    23    24    1
    19    24    25    2
    20    25    26    1
    21    26    31    1
    22    31    32    1
    23    32    33    1
    24    33    34    1
    25    34    35    1
    26    35    36    1
    27    26    27    2
    28    27    28    1
    29    28    29    1
    30    29    30    2
    31     1     4    1
    32     4     5    1
    33     4     6    1
    34     4     7    1
    35    18    12   ar
    36    30    22    1
    37    29    24    1
    38    36    31    1
    39     2     3    1
@<TRIPOS>MOLECULE
*****
 36 39 0 0 0
SMALL
GASTEIGER

@<TRIPOS>ATOM
      1 C          61.9340   86.7566   10.6195 C.3     1  UNL1        0.1812
      2 O          62.9534   86.7584   11.7198 O.3     1  UNL1       -0.3784
      3 H          63.4983   85.9584   11.6570 H       1  UNL1        0.2106
      4 C          60.9146   86.7547    9.5191 C.3     1  UNL1        0.4197
      5 F          59.8951   86.7528    8.4187 F       1  UNL1       -0.1676
      6 F          59.8897   87.3025   10.4677 F       1  UNL1       -0.1676
      7 F          61.9394   86.2070    8.5706 F       1  UNL1       -0.1676
      8 C          62.4673   85.4437   10.1275 C.3     1  UNL1        0.0399
      9 C          62.7644   84.3424   11.1016 C.3     1  UNL1        0.0244
     10 C          61.6985   84.8657   12.0182 C.3     1  UNL1        0.0046
     11 C          63.8302   83.8191   10.1850 C.3     1  UNL1        0.0046
     12 C          63.8156   83.5392   13.3376 C.ar    1  UNL1        0.1348
     13 C          64.1126   82.4379   14.3117 C.ar    1  UNL1        0.0389
     14 C          63.6554   81.0386   14.0240 C.ar    1  UNL1        0.0327
     15 C          62.9012   80.7405   12.7621 C.ar    1  UNL1        0.1400
     16 F          62.4440   79.3411   12.4744 F       1  UNL1       -0.2042
     17 C          62.6041   81.8417   11.7880 C.ar    1  UNL1        0.0283
     18 C          63.0614   83.2411   12.0758 C.ar    1  UNL1        0.0135
     19 C          64.2348   85.4663   15.0289 C.3     1  UNL1        0.2525
     20 O          64.2728   84.9386   13.6253 O.3     1  UNL1       -0.4717
     21 C          61.4006   88.0694   11.1114 C.3     1  UNL1        0.0811
     22 C          62.3318   89.2269   11.3187 C.2     1  UNL1        0.0614
     23 C          62.7940   90.1868   10.2627 C.2     1  UNL1        0.0163
     24 C          63.7122   91.1809   10.9097 C.2     1  UNL1        0.0264
     25 C          64.4659   92.3561   10.3613 C.2     1  UNL1        0.0903
     26 C          65.3251   93.1859   11.2688 C.2     1  UNL1        0.3192
     27 N          65.4304   92.8404   12.7246 N.2     1  UNL1       -0.0585
     28 C          64.6766   91.6652   13.2730 C.3     1  UNL1        0.3085
     29 C          63.8175   90.8355   12.3656 C.2     1  UNL1        0.1121
     30 N          62.9644   89.6278   12.6184 N.2     1  UNL1       -0.2495
     31 N          66.0789   94.3610   10.7204 N.pl3   1  UNL1       -0.1860
     32 C          66.0361   95.6792   11.4350 C.3     1  UNL1        0.2346
     33 C          66.7899   96.8544   10.8866 C.3     1  UNL1        0.1929
     34 O          67.5864   96.7114    9.6235 O.3     1  UNL1       -0.3449
     35 C          67.6291   95.3932    8.9090 C.3     1  UNL1        0.1929
     36 C          66.8753   94.2181    9.4574 C.3     1  UNL1        0.2346
@<TRIPOS>BOND
     1    19    20    1
     2    20    12    1
     3    12    13   ar
     4    13    14   ar
     5    14    15   ar
     6    15    16    1
     7    15    17   ar
     8    17    18   ar
     9    18     9    1
    10     9    10    1
    11     9    11    1
    12     9     8    1
    13     8     1    1
    14     1     2    1
    15     1    21    1
    16    21    22    1
    17    22    23    2
    18    23    24    1
    19    24    25    2
    20    25    26    1
    21    26    31    1
    22    31    32    1
    23    32    33    1
    24    33    34    1
    25    34    35    1
    26    35    36    1
    27    26    27    2
    28    27    28    1
    29    28    29    1
    30    29    30    2
    31     1     4    1
    32     4     5    1
    33     4     6    1
    34     4     7    1
    35    18    12   ar
    36    30    22    1
    37    29    24    1
    38    36    31    1
    39     2     3    1
@<TRIPOS>MOLECULE
*****
 36 39 0 0 0
SMALL
GASTEIGER

@<TRIPOS>ATOM
      1 C          63.6337   87.1454   15.5712 C.3     1  UNL1        0.1812
      2 O          64.1113   87.3088   14.1587 O.3     1  UNL1       -0.3784
      3 H          64.4288   86.4555   13.8240 H       1  UNL1        0.2106
      4 C          63.1561   86.9820   16.9837 C.3     1  UNL1        0.4197
      5 F          62.6784   86.8187   18.3962 F       1  UNL1       -0.1676
      6 F          63.9379   85.7072   17.1006 F       1  UNL1       -0.1676
      7 F          62.3743   88.2568   16.8668 F       1  UNL1       -0.1676
      8 C          63.9856   85.6881   15.5217 C.3     1  UNL1        0.0399
      9 C          63.8451   84.9258   14.2375 C.3     1  UNL1        0.0244
     10 C          65.3385   84.8561   14.1155 C.3     1  UNL1        0.0046
     11 C          62.3517   84.9955   14.3595 C.3     1  UNL1        0.0046
     12 C          63.6634   82.6642   12.9717 C.ar    1  UNL1        0.1348
     13 C          63.5229   81.9019   11.6875 C.ar    1  UNL1        0.0389
     14 C          63.4236   82.6390   10.3849 C.ar    1  UNL1        0.0327
     15 C          63.4647   84.1383   10.3664 C.ar    1  UNL1        0.1400
     16 F          63.3654   84.8754    9.0638 F       1  UNL1       -0.2042
     17 C          63.6052   84.9006   11.6506 C.ar    1  UNL1        0.0283
     18 C          63.7046   84.1635   12.9533 C.ar    1  UNL1        0.0135
     19 C          63.1116   80.5846   14.4280 C.3     1  UNL1        0.2525
     20 O          63.7628   81.9271   14.2744 O.3     1  UNL1       -0.4717
     21 C          63.2817   88.6026   15.6207 C.3     1  UNL1        0.0811
     22 C          64.1082   89.5999   14.8643 C.2     1  UNL1        0.0614
     23 C          63.6756   90.3604   13.6458 C.2     1  UNL1        0.0163
     24 C          64.8124   91.2423   13.2218 C.2     1  UNL1        0.0264
     25 C          64.9606   92.2137   12.0885 C.2     1  UNL1        0.0903
     26 C          66.2440   92.9697   11.9116 C.2     1  UNL1        0.3192
     27 N          67.3793   92.7544   12.8680 N.2     1  UNL1       -0.0585
     28 C          67.2311   91.7830   14.0014 C.3     1  UNL1        0.3085
     29 C          65.9478   91.0270   14.1783 C.2     1  UNL1        0.1121
     30 N          65.5125   90.0119   15.1934 N.2     1  UNL1       -0.2495
     31 N          66.3921   93.9411   10.7782 N.pl3   1  UNL1       -0.1860
     32 C          67.2917   93.6143    9.6231 C.3     1  UNL1        0.2346
     33 C          67.4399   94.5857    8.4898 C.3     1  UNL1        0.1929
     34 O          66.6884   95.8838    8.5115 O.3     1  UNL1       -0.3449
     35 C          65.7889   96.2104    9.6665 C.3     1  UNL1        0.1929
     36 C          65.6408   95.2391   10.7998 C.3     1  UNL1        0.2346
@<TRIPOS>BOND
     1    19    20    1
     2    20    12    1
     3    12    13   ar
     4    13    14   ar
     5    14    15   ar
     6    15    16    1
     7    15    17   ar
     8    17    18   ar
     9    18     9    1
    10     9    10    1
    11     9    11    1
    12     9     8    1
    13     8     1    1
    14     1     2    1
    15     1    21    1
    16    21    22    1
    17    22    23    2
    18    23    24    1
    19    24    25    2
    20    25    26    1
    21    26    31    1
    22    31    32    1
    23    32    33    1
    24    33    34    1
    25    34    35    1
    26    35    36    1
    27    26    27    2
    28    27    28    1
    29    28    29    1
    30    29    30    2
    31     1     4    1
    32     4     5    1
    33     4     6    1
    34     4     7    1
    35    18    12   ar
    36    30    22    1
    37    29    24    1
    38    36    31    1
    39     2     3    1
@<TRIPOS>MOLECULE
*****
 36 39 0 0 0
SMALL
GASTEIGER

@<TRIPOS>ATOM
      1 C          61.4576   87.6627    9.8645 C.3     1  UNL1        0.1812
      2 O          62.8030   87.7251   10.5246 O.3     1  UNL1       -0.3784
      3 H          63.2331   86.8578   10.4647 H       1  UNL1        0.2106
      4 C          60.1121   87.6003    9.2044 C.3     1  UNL1        0.4197
      5 F          58.7666   87.5379    8.5443 F       1  UNL1       -0.1676
      6 F          60.7280   86.9295    8.0124 F       1  UNL1       -0.1676
      7 F          59.4962   88.2710   10.3963 F       1  UNL1       -0.1676
      8 C          61.6873   86.2179    9.5327 C.3     1  UNL1        0.0399
      9 C          62.2405   85.2886   10.5721 C.3     1  UNL1        0.0244
     10 C          63.1888   84.7196    9.5586 C.3     1  UNL1        0.0046
     11 C          61.2923   85.8575   11.5856 C.3     1  UNL1        0.0046
     12 C          63.4131   84.9137   12.8600 C.ar    1  UNL1        0.1348
     13 C          63.9663   83.9843   13.8993 C.ar    1  UNL1        0.0389
     14 C          63.9001   82.5004   13.6901 C.ar    1  UNL1        0.0327
     15 C          63.2808   81.9459   12.4415 C.ar    1  UNL1        0.1400
     16 F          63.2146   80.4621   12.2323 F       1  UNL1       -0.2042
     17 C          62.7276   82.8753   11.4021 C.ar    1  UNL1        0.0283
     18 C          62.7937   84.3592   11.6114 C.ar    1  UNL1        0.0135
     19 C          64.1837   86.9549   14.2705 C.3     1  UNL1        0.2525
     20 O          63.4792   86.3976   13.0692 O.3     1  UNL1       -0.4717
     21 C          61.2278   89.1074   10.1962 C.3     1  UNL1        0.0811
     22 C          62.3520   89.9409   10.7361 C.2     1  UNL1        0.0614
     23 C          62.9728   89.8099   12.0954 C.2     1  UNL1        0.0163
     24 C          64.0572   90.8398   12.2109 C.2     1  UNL1        0.0264
     25 C          65.0061   91.1779   13.3223 C.2     1  UNL1        0.0903
     26 C          66.0044   92.2835   13.1459 C.2     1  UNL1        0.3192
     27 N          66.0538   93.0509   11.8581 N.2     1  UNL1       -0.0585
     28 C          65.1050   92.7128   10.7466 C.3     1  UNL1        0.3085
     29 C          64.1067   91.6073   10.9230 C.2     1  UNL1        0.1121
     30 N          63.0527   91.0517   10.0115 N.2     1  UNL1       -0.2495
     31 N          66.9533   92.6216   14.2574 N.pl3   1  UNL1       -0.1860
     32 C          67.5570   91.5273   15.0870 C.3     1  UNL1        0.2346
     33 C          68.5059   91.8654   16.1985 C.3     1  UNL1        0.1929
     34 O          68.8510   93.2978   16.4803 O.3     1  UNL1       -0.3449
     35 C          68.2472   94.3919   15.6507 C.3     1  UNL1        0.1929
     36 C          67.2984   94.0538   14.5392 C.3     1  UNL1        0.2346
@<TRIPOS>BOND
     1    19    20    1
     2    20    12    1
     3    12    13   ar
     4    13    14   ar
     5    14    15   ar
     6    15    16    1
     7    15    17   ar
     8    17    18   ar
     9    18     9    1
    10     9    10    1
    11     9    11    1
    12     9     8    1
    13     8     1    1
    14     1     2    1
    15     1    21    1
    16    21    22    1
    17    22    23    2
    18    23    24    1
    19    24    25    2
    20    25    26    1
    21    26    31    1
    22    31    32    1
    23    32    33    1
    24    33    34    1
    25    34    35    1
    26    35    36    1
    27    26    27    2
    28    27    28    1
    29    28    29    1
    30    29    30    2
    31     1     4    1
    32     4     5    1
    33     4     6    1
    34     4     7    1
    35    18    12   ar
    36    30    22    1
    37    29    24    1
    38    36    31    1
    39     2     3    1
@<TRIPOS>MOLECULE
*****
 36 39 0 0 0
SMALL
GASTEIGER

@<TRIPOS>ATOM
      1 C          65.8167   91.9303   14.0554 C.3     1  UNL1        0.1812
      2 O          64.9520   91.8506   12.8324 O.3     1  UNL1       -0.3784
      3 H          65.4781   92.0755   12.0492 H       1  UNL1        0.2106
      4 C          66.6815   92.0100   15.2784 C.3     1  UNL1        0.4197
      5 F          67.5463   92.0897   16.5015 F       1  UNL1       -0.1676
      6 F          65.6249   92.8171   15.9730 F       1  UNL1       -0.1676
      7 F          67.7381   91.2030   14.5839 F       1  UNL1       -0.1676
      8 C          66.9855   92.3274   13.2032 C.3     1  UNL1        0.0399
      9 C          66.7871   93.2610   12.0460 C.3     1  UNL1        0.0244
     10 C          67.0337   92.1304   11.0916 C.3     1  UNL1        0.0046
     11 C          66.5405   94.3916   13.0004 C.3     1  UNL1        0.0046
     12 C          67.6158   94.2661    9.7981 C.ar    1  UNL1        0.1348
     13 C          67.4174   95.1996    8.6409 C.ar    1  UNL1        0.0389
     14 C          66.1917   96.0617    8.5744 C.ar    1  UNL1        0.0327
     15 C          65.1643   95.9902    9.6652 C.ar    1  UNL1        0.1400
     16 F          63.9386   96.8523    9.5987 F       1  UNL1       -0.2042
     17 C          65.3628   95.0566   10.8223 C.ar    1  UNL1        0.0283
     18 C          66.5886   94.1946   10.8888 C.ar    1  UNL1        0.0135
     19 C          69.0873   92.3669    8.8091 C.3     1  UNL1        0.2525
     20 O          68.8416   93.4040    9.8646 O.3     1  UNL1       -0.4717
     21 C          64.6480   91.5332   14.9077 C.3     1  UNL1        0.0811
     22 C          64.2939   90.0844   15.0670 C.2     1  UNL1        0.0614
     23 C          64.4829   89.0119   14.0353 C.2     1  UNL1        0.0163
     24 C          63.9945   87.7183   14.6165 C.2     1  UNL1        0.0264
     25 C          63.9333   86.3271   14.0590 C.2     1  UNL1        0.0903
     26 C          63.3812   85.2087   14.8925 C.2     1  UNL1        0.3192
     27 N          62.8904   85.4816   16.2833 N.2     1  UNL1       -0.0585
     28 C          62.9516   86.8727   16.8409 C.3     1  UNL1        0.3085
     29 C          63.5036   87.9911   16.0075 C.2     1  UNL1        0.1121
     30 N          63.6887   89.4534   16.2859 N.2     1  UNL1       -0.2495
     31 N          63.3200   83.8175   14.3349 N.pl3   1  UNL1       -0.1860
     32 C          64.3424   83.3645   13.3351 C.3     1  UNL1        0.2346
     33 C          64.2811   81.9733   12.7776 C.3     1  UNL1        0.1929
     34 O          63.1975   81.0351   13.2199 O.3     1  UNL1       -0.3449
     35 C          62.1752   81.4881   14.2196 C.3     1  UNL1        0.1929
     36 C          62.2364   82.8793   14.7772 C.3     1  UNL1        0.2346
@<TRIPOS>BOND
     1    19    20    1
     2    20    12    1
     3    12    13   ar
     4    13    14   ar
     5    14    15   ar
     6    15    16    1
     7    15    17   ar
     8    17    18   ar
     9    18     9    1
    10     9    10    1
    11     9    11    1
    12     9     8    1
    13     8     1    1
    14     1     2    1
    15     1    21    1
    16    21    22    1
    17    22    23    2
    18    23    24    1
    19    24    25    2
    20    25    26    1
    21    26    31    1
    22    31    32    1
    23    32    33    1
    24    33    34    1
    25    34    35    1
    26    35    36    1
    27    26    27    2
    28    27    28    1
    29    28    29    1
    30    29    30    2
    31     1     4    1
    32     4     5    1
    33     4     6    1
    34     4     7    1
    35    18    12   ar
    36    30    22    1
    37    29    24    1
    38    36    31    1
    39     2     3    1
@<TRIPOS>MOLECULE
*****
 36 39 0 0 0
SMALL
GASTEIGER

@<TRIPOS>ATOM
      1 C          65.9149   91.9441   13.8492 C.3     1  UNL1        0.1812
      2 O          65.1903   91.9307   12.5360 O.3     1  UNL1       -0.3784
      3 H          65.7436   92.3479   11.8572 H       1  UNL1        0.2106
      4 C          66.6395   91.9574   15.1625 C.3     1  UNL1        0.4197
      5 F          67.3641   91.9708   16.4759 F       1  UNL1       -0.1676
      6 F          65.4573   92.6177   15.8081 F       1  UNL1       -0.1676
      7 F          67.8216   91.2972   14.5171 F       1  UNL1       -0.1676
      8 C          67.0787   92.6330   13.2002 C.3     1  UNL1        0.0399
      9 C          66.8631   93.4845   11.9843 C.3     1  UNL1        0.0244
     10 C          67.2047   92.3172   11.1063 C.3     1  UNL1        0.0046
     11 C          66.5216   94.6518   12.8622 C.3     1  UNL1        0.0046
     12 C          67.6738   94.3548    9.6744 C.ar    1  UNL1        0.1348
     13 C          67.4582   95.2063    8.4585 C.ar    1  UNL1        0.0389
     14 C          66.2166   96.0389    8.3364 C.ar    1  UNL1        0.0327
     15 C          65.1904   96.0202    9.4304 C.ar    1  UNL1        0.1400
     16 F          63.9488   96.8529    9.3083 F       1  UNL1       -0.2042
     17 C          65.4059   95.1687   10.6463 C.ar    1  UNL1        0.0283
     18 C          66.6476   94.3360   10.7683 C.ar    1  UNL1        0.0135
     19 C          69.1857   92.4288    8.8057 C.3     1  UNL1        0.2525
     20 O          68.9155   93.5221    9.7964 O.3     1  UNL1       -0.4717
     21 C          64.7513   91.2552   14.4983 C.3     1  UNL1        0.0811
     22 C          64.2661   89.9397   13.9653 C.2     1  UNL1        0.0614
     23 C          64.5294   88.5923   14.5699 C.2     1  UNL1        0.0163
     24 C          63.8585   87.5604   13.7125 C.2     1  UNL1        0.0264
     25 C          63.7773   86.0664   13.8182 C.2     1  UNL1        0.0903
     26 C          63.0181   85.2819   12.7894 C.2     1  UNL1        0.3192
     27 N          62.3403   85.9915   11.6549 N.2     1  UNL1       -0.0585
     28 C          62.4215   87.4855   11.5493 C.3     1  UNL1        0.3085
     29 C          63.1805   88.2700   12.5780 C.2     1  UNL1        0.1121
     30 N          63.4325   89.7405   12.7343 N.2     1  UNL1       -0.2495
     31 N          62.9369   83.7878   12.8950 N.pl3   1  UNL1       -0.1860
     32 C          63.5342   82.9265   11.8220 C.3     1  UNL1        0.2346
     33 C          63.4530   81.4324   11.9277 C.3     1  UNL1        0.1929
     34 O          62.7745   80.7997   13.1064 O.3     1  UNL1       -0.3449
     35 C          62.1773   81.6610   14.1794 C.3     1  UNL1        0.1929
     36 C          62.2585   83.1551   14.0737 C.3     1  UNL1        0.2346
@<TRIPOS>BOND
     1    19    20    1
     2    20    12    1
     3    12    13   ar
     4    13    14   ar
     5    14    15   ar
     6    15    16    1
     7    15    17   ar
     8    17    18   ar
     9    18     9    1
    10     9    10    1
    11     9    11    1
    12     9     8    1
    13     8     1    1
    14     1     2    1
    15     1    21    1
    16    21    22    1
    17    22    23    2
    18    23    24    1
    19    24    25    2
    20    25    26    1
    21    26    31    1
    22    31    32    1
    23    32    33    1
    24    33    34    1
    25    34    35    1
    26    35    36    1
    27    26    27    2
    28    27    28    1
    29    28    29    1
    30    29    30    2
    31     1     4    1
    32     4     5    1
    33     4     6    1
    34     4     7    1
    35    18    12   ar
    36    30    22    1
    37    29    24    1
    38    36    31    1
    39     2     3    1
@<TRIPOS>MOLECULE
*****
 36 39 0 0 0
SMALL
GASTEIGER

@<TRIPOS>ATOM
      1 C          65.4976   91.3635   14.3834 C.3     1  UNL1        0.1812
      2 O          65.4906   90.7458   13.0166 O.3     1  UNL1       -0.3784
      3 H          66.2803   91.0291   12.5297 H       1  UNL1        0.2106
      4 C          65.5046   91.9813   15.7503 C.3     1  UNL1        0.4197
      5 F          65.5116   92.5991   17.1172 F       1  UNL1       -0.1676
      6 F          64.0083   91.8874   15.8004 F       1  UNL1       -0.1676
      7 F          67.0007   92.0752   15.7002 F       1  UNL1       -0.1676
      8 C          66.7953   92.0466   14.0681 C.3     1  UNL1        0.0399
      9 C          67.0708   92.5266   12.6740 C.3     1  UNL1        0.0244
     10 C          65.6933   93.1163   12.6048 C.3     1  UNL1        0.0046
     11 C          68.4483   91.9369   12.7432 C.3     1  UNL1        0.0046
     12 C          66.8684   94.3600   10.8443 C.ar    1  UNL1        0.1348
     13 C          67.1439   94.8400    9.4502 C.ar    1  UNL1        0.0389
     14 C          67.8974   93.9664    8.4914 C.ar    1  UNL1        0.0327
     15 C          68.3753   92.6129    8.9268 C.ar    1  UNL1        0.1400
     16 F          69.1288   91.7394    7.9681 F       1  UNL1       -0.2042
     17 C          68.0998   92.1329   10.3210 C.ar    1  UNL1        0.0283
     18 C          67.3463   93.0065   11.2798 C.ar    1  UNL1        0.0135
     19 C          66.0807   96.7189   11.5963 C.3     1  UNL1        0.2525
     20 O          66.1149   95.2336   11.8031 O.3     1  UNL1       -0.4717
     21 C          64.1999   90.6805   14.6988 C.3     1  UNL1        0.0811
     22 C          63.8429   89.3952   14.0129 C.2     1  UNL1        0.0614
     23 C          64.1310   88.0141   14.5226 C.2     1  UNL1        0.0163
     24 C          63.6013   87.0306   13.5215 C.2     1  UNL1        0.0264
     25 C          63.5999   85.5309   13.4917 C.2     1  UNL1        0.0903
     26 C          62.9829   84.8044   12.3334 C.2     1  UNL1        0.3192
     27 N          62.3674   85.5776   11.2051 N.2     1  UNL1       -0.0585
     28 C          62.3688   87.0773   11.2349 C.3     1  UNL1        0.3085
     29 C          62.9857   87.8038   12.3931 C.2     1  UNL1        0.1121
     30 N          63.1351   89.2652   12.6968 N.2     1  UNL1       -0.2495
     31 N          62.9815   83.3047   12.3036 N.pl3   1  UNL1       -0.1860
     32 C          63.2831   82.5797   11.0255 C.3     1  UNL1        0.2346
     33 C          63.2817   81.0800   10.9957 C.3     1  UNL1        0.1929
     34 O          62.9786   80.3053   12.2440 O.3     1  UNL1       -0.3449
     35 C          62.6771   81.0303   13.5220 C.3     1  UNL1        0.1929
     36 C          62.6785   82.5300   13.5518 C.3     1  UNL1        0.2346
@<TRIPOS>BOND
     1    19    20    1
     2    20    12    1
     3    12    13   ar
     4    13    14   ar
     5    14    15   ar
     6    15    16    1
     7    15    17   ar
     8    17    18   ar
     9    18     9    1
    10     9    10    1
    11     9    11    1
    12     9     8    1
    13     8     1    1
    14     1     2    1
    15     1    21    1
    16    21    22    1
    17    22    23    2
    18    23    24    1
    19    24    25    2
    20    25    26    1
    21    26    31    1
    22    31    32    1
    23    32    33    1
    24    33    34    1
    25    34    35    1
    26    35    36    1
    27    26    27    2
    28    27    28    1
    29    28    29    1
    30    29    30    2
    31     1     4    1
    32     4     5    1
    33     4     6    1
    34     4     7    1
    35    18    12   ar
    36    30    22    1
    37    29    24    1
    38    36    31    1
    39     2     3    1
@<TRIPOS>MOLECULE
*****
 36 39 0 0 0
SMALL
GASTEIGER

@<TRIPOS>ATOM
      1 C          65.2652   91.3393   14.2235 C.3     1  UNL1        0.1812
      2 O          65.2709   90.8310   12.8123 O.3     1  UNL1       -0.3784
      3 H          66.0747   91.1348   12.3624 H       1  UNL1        0.2106
      4 C          65.2595   91.8477   15.6347 C.3     1  UNL1        0.4197
      5 F          65.2539   92.3561   17.0459 F       1  UNL1       -0.1676
      6 F          63.7597   91.8691   15.6210 F       1  UNL1       -0.1676
      7 F          66.7593   91.8263   15.6484 F       1  UNL1       -0.1676
      8 C          66.5817   92.0175   13.9845 C.3     1  UNL1        0.0399
      9 C          66.9275   92.5225   12.6151 C.3     1  UNL1        0.0244
     10 C          68.3057   91.9461   12.7506 C.3     1  UNL1        0.0046
     11 C          65.5494   93.0990   12.4797 C.3     1  UNL1        0.0046
     12 C          66.8740   94.4138   10.8346 C.ar    1  UNL1        0.1348
     13 C          67.2198   94.9188    9.4652 C.ar    1  UNL1        0.0389
     14 C          67.9650   94.0378    8.5069 C.ar    1  UNL1        0.0327
     15 C          68.3644   92.6515    8.9180 C.ar    1  UNL1        0.1400
     16 F          69.1095   91.7704    7.9597 F       1  UNL1       -0.2042
     17 C          68.0185   92.1464   10.2874 C.ar    1  UNL1        0.0283
     18 C          67.2734   93.0276   11.2457 C.ar    1  UNL1        0.0135
     19 C          65.9908   96.7617   11.5109 C.3     1  UNL1        0.2525
     20 O          66.1288   95.2949   11.7929 O.3     1  UNL1       -0.4717
     21 C          63.9488   90.6613   14.4625 C.3     1  UNL1        0.0811
     22 C          63.8666   89.1636   14.4674 C.2     1  UNL1        0.0614
     23 C          63.6427   88.2888   13.2695 C.2     1  UNL1        0.0163
     24 C          63.6316   86.8622   13.7328 C.2     1  UNL1        0.0264
     25 C          63.4519   85.5687   12.9949 C.2     1  UNL1        0.0903
     26 C          63.4893   84.2680   13.7413 C.2     1  UNL1        0.3192
     27 N          63.7063   84.2610   15.2255 N.2     1  UNL1       -0.0585
     28 C          63.8860   85.5546   15.9634 C.3     1  UNL1        0.3085
     29 C          63.8487   86.8552   15.2170 C.2     1  UNL1        0.1121
     30 N          63.9939   88.2775   15.6710 N.2     1  UNL1       -0.2495
     31 N          63.3096   82.9745   13.0035 N.pl3   1  UNL1       -0.1860
     32 C          62.8567   81.7481   13.7391 C.3     1  UNL1        0.2346
     33 C          62.6770   80.4546   13.0012 C.3     1  UNL1        0.1929
     34 O          62.9502   80.3874   11.5278 O.3     1  UNL1       -0.3449
     35 C          63.4032   81.6137   10.7923 C.3     1  UNL1        0.1929
     36 C          63.5829   82.9072   11.5302 C.3     1  UNL1        0.2346
@<TRIPOS>BOND
     1    19    20    1
     2    20    12    1
     3    12    13   ar
     4    13    14   ar
     5    14    15   ar
     6    15    16    1
     7    15    17   ar
     8    17    18   ar
     9    18     9    1
    10     9    10    1
    11     9    11    1
    12     9     8    1
    13     8     1    1
    14     1     2    1
    15     1    21    1
    16    21    22    1
    17    22    23    2
    18    23    24    1
    19    24    25    2
    20    25    26    1
    21    26    31    1
    22    31    32    1
    23    32    33    1
    24    33    34    1
    25    34    35    1
    26    35    36    1
    27    26    27    2
    28    27    28    1
    29    28    29    1
    30    29    30    2
    31     1     4    1
    32     4     5    1
    33     4     6    1
    34     4     7    1
    35    18    12   ar
    36    30    22    1
    37    29    24    1
    38    36    31    1
    39     2     3    1
