@<TRIPOS>MOLECULE
*****
 30 33 0 0 0
SMALL
GASTEIGER

@<TRIPOS>ATOM
      1 N          65.4147   91.2961   13.3818 N.am    1  UNL1       -0.2904
      2 C          64.1116   90.6820   13.7997 C.2     1  UNL1        0.2673
      3 O          63.3451   91.2607   14.9519 O.2     1  UNL1       -0.2684
      4 H          65.9177   90.9162   12.6255 H       1  UNL1        0.1503
      5 C          63.5749   89.4892   13.0653 C.ar    1  UNL1        0.1759
      6 N          63.8327   88.0523   13.4100 N.ar    1  UNL1       -0.0723
      7 O          63.1033   87.1989   12.4151 O.2     1  UNL1       -0.3533
      8 C          62.3947   88.1085   11.4556 C.ar    1  UNL1        0.1769
      9 C          62.6862   89.5239   11.8575 C.ar    1  UNL1        0.0625
     10 C          62.1047   90.6616   11.0716 C.ar    1  UNL1        0.0049
     11 C          61.2317   90.3838    9.8839 C.ar    1  UNL1        0.0003
     12 C          60.9402   88.9683    9.4820 C.ar    1  UNL1        0.0030
     13 C          60.0673   88.6905    8.2942 C.ar    1  UNL1        0.0001
     14 C          59.7758   87.2751    7.8924 C.ar    1  UNL1        0.0000
     15 C          60.3573   86.1374    8.6782 C.ar    1  UNL1        0.0001
     16 C          61.2303   86.4152    9.8660 C.ar    1  UNL1        0.0031
     17 C          61.5217   87.8307   10.2678 C.ar    1  UNL1        0.0372
     18 C          65.9515   92.4889   14.1161 C.3     1  UNL1        0.1945
     19 C          66.3010   92.3792   15.5706 C.2     1  UNL1        0.3369
     20 O          65.2555   92.6373   16.6148 O.2     1  UNL1       -0.2482
     21 O          67.6961   92.0115   15.9811 O.3     1  UNL1       -0.4511
     22 C          69.2893   94.0624   16.0573 C.3     1  UNL1        0.0473
     23 C          68.8656   92.7693   15.4260 C.3     1  UNL1        0.1691
     24 C          69.6113   92.2340   14.2397 C.3     1  UNL1        0.0473
     25 C          66.1387   93.7913   13.3958 C.3     1  UNL1        0.1386
     26 N          66.4757   93.7983   11.9342 N.ar    1  UNL1       -0.3055
     27 C          66.2270   94.9265   10.9775 C.ar    1  UNL1        0.0981
     28 C          66.7181   94.5037    9.6246 C.ar    1  UNL1        0.1193
     29 N          67.2702   93.1143    9.7453 N.ar    1  UNL1       -0.2223
     30 C          67.1204   92.6783   11.1727 C.ar    1  UNL1        0.1787
@<TRIPOS>BOND
     1    22    23    1
     2    23    24    1
     3    23    21    1
     4    21    19    1
     5    19    20    2
     6    19    18    1
     7    18    25    1
     8    25    26    1
     9    26    27   ar
    10    27    28   ar
    11    28    29   ar
    12    29    30   ar
    13    18     1    1
    14     1     2   am
    15     2     3    2
    16     2     5    1
    17     5     6   ar
    18     6     7   ar
    19     7     8   ar
    20     8     9   ar
    21     9    10   ar
    22    10    11   ar
    23    11    12   ar
    24    12    13   ar
    25    13    14   ar
    26    14    15   ar
    27    15    16   ar
    28    16    17   ar
    29    30    26   ar
    30     9     5   ar
    31    17    12   ar
    32    17     8   ar
    33     1     4    1
@<TRIPOS>MOLECULE
*****
 30 33 0 0 0
SMALL
GASTEIGER

@<TRIPOS>ATOM
      1 N          65.2529   91.3404   12.3975 N.am    1  UNL1       -0.2904
      2 C          64.0616   90.7368   13.0803 C.2     1  UNL1        0.2673
      3 O          63.3678   91.4856   14.1794 O.2     1  UNL1       -0.2684
      4 H          65.7082   90.8489   11.6761 H       1  UNL1        0.1503
      5 C          63.5640   89.3843   12.6639 C.ar    1  UNL1        0.1759
      6 N          62.7190   89.0877   11.4606 N.ar    1  UNL1       -0.0723
      7 O          62.4568   87.6111   11.4308 O.2     1  UNL1       -0.3533
      8 C          63.1398   86.9952   12.6158 C.ar    1  UNL1        0.1769
      9 C          63.8240   88.0910   13.3779 C.ar    1  UNL1        0.0625
     10 C          64.5955   87.7697   14.6235 C.ar    1  UNL1        0.0049
     11 C          64.6828   86.3524   15.1070 C.ar    1  UNL1        0.0003
     12 C          63.9985   85.2565   14.3449 C.ar    1  UNL1        0.0030
     13 C          64.0857   83.8393   14.8284 C.ar    1  UNL1        0.0001
     14 C          63.4014   82.7434   14.0663 C.ar    1  UNL1        0.0000
     15 C          62.6299   83.0648   12.8207 C.ar    1  UNL1        0.0001
     16 C          62.5427   84.4820   12.3372 C.ar    1  UNL1        0.0031
     17 C          63.2270   85.5779   13.0993 C.ar    1  UNL1        0.0372
     18 C          65.7506   92.6929   12.8138 C.3     1  UNL1        0.1945
     19 C          66.4108   92.8708   14.1488 C.2     1  UNL1        0.3369
     20 O          65.5845   92.8666   15.4007 O.2     1  UNL1       -0.2482
     21 O          67.8974   93.0528   14.2321 O.3     1  UNL1       -0.4511
     22 C          69.1459   94.4692   16.0168 C.3     1  UNL1        0.0473
     23 C          68.5661   93.1597   15.5705 C.3     1  UNL1        0.1691
     24 C          68.6551   91.9571   16.4626 C.3     1  UNL1        0.0473
     25 C          65.5881   93.8674   11.8950 C.3     1  UNL1        0.1386
     26 N          66.5270   94.0515   10.7398 N.ar    1  UNL1       -0.3055
     27 C          67.3069   92.9678   10.0561 C.ar    1  UNL1        0.0981
     28 C          68.1127   93.5982    8.9592 C.ar    1  UNL1        0.1193
     29 N          67.8308   95.0714    8.9650 N.ar    1  UNL1       -0.2223
     30 C          66.8508   95.3516   10.0654 C.ar    1  UNL1        0.1787
@<TRIPOS>BOND
     1    22    23    1
     2    23    24    1
     3    23    21    1
     4    21    19    1
     5    19    20    2
     6    19    18    1
     7    18    25    1
     8    25    26    1
     9    26    27   ar
    10    27    28   ar
    11    28    29   ar
    12    29    30   ar
    13    18     1    1
    14     1     2   am
    15     2     3    2
    16     2     5    1
    17     5     6   ar
    18     6     7   ar
    19     7     8   ar
    20     8     9   ar
    21     9    10   ar
    22    10    11   ar
    23    11    12   ar
    24    12    13   ar
    25    13    14   ar
    26    14    15   ar
    27    15    16   ar
    28    16    17   ar
    29    30    26   ar
    30     9     5   ar
    31    17    12   ar
    32    17     8   ar
    33     1     4    1
@<TRIPOS>MOLECULE
*****
 30 33 0 0 0
SMALL
GASTEIGER

@<TRIPOS>ATOM
      1 N          62.5028   87.7702    9.9967 N.am    1  UNL1       -0.2904
      2 C          62.1408   88.7888   11.0365 C.2     1  UNL1        0.2673
      3 O          60.9071   88.6044   11.8696 O.2     1  UNL1       -0.2684
      4 H          63.3125   87.8913    9.4499 H       1  UNL1        0.1503
      5 C          63.0126   89.9919   11.2432 C.ar    1  UNL1        0.1759
      6 N          63.2413   91.0956   10.2535 N.ar    1  UNL1       -0.0723
      7 O          64.1787   92.0883   10.8746 O.2     1  UNL1       -0.3533
      8 C          64.5293   91.5981   12.2482 C.ar    1  UNL1        0.1769
      9 C          63.8086   90.3025   12.4761 C.ar    1  UNL1        0.0625
     10 C          63.9703   89.5730   13.7767 C.ar    1  UNL1        0.0049
     11 C          64.8527   90.1390   14.8494 C.ar    1  UNL1        0.0003
     12 C          65.5735   91.4347   14.6216 C.ar    1  UNL1        0.0030
     13 C          66.4559   92.0008   15.6944 C.ar    1  UNL1        0.0001
     14 C          67.1766   93.2964   15.4666 C.ar    1  UNL1        0.0000
     15 C          67.0149   94.0259   14.1659 C.ar    1  UNL1        0.0001
     16 C          66.1325   93.4599   13.0932 C.ar    1  UNL1        0.0031
     17 C          65.4118   92.1643   13.3210 C.ar    1  UNL1        0.0372
     18 C          61.6311   86.5671    9.7898 C.3     1  UNL1        0.1945
     19 C          60.7886   86.4550    8.5538 C.2     1  UNL1        0.3369
     20 O          61.2163   85.5534    7.4339 O.2     1  UNL1       -0.2482
     21 O          59.5185   87.2444    8.4377 O.3     1  UNL1       -0.4511
     22 C          59.2427   88.9809    6.5250 C.3     1  UNL1        0.0473
     23 C          59.5594   88.6646    7.9567 C.3     1  UNL1        0.1691
     24 C          59.9171   89.7684    8.9073 C.3     1  UNL1        0.0473
     25 C          61.6018   85.4762   10.8189 C.3     1  UNL1        0.1386
     26 N          62.7441   84.5091   10.9194 N.ar    1  UNL1       -0.3055
     27 C          63.2806   83.9065   12.1839 C.ar    1  UNL1        0.0981
     28 C          64.4184   82.9998   11.8189 C.ar    1  UNL1        0.1193
     29 N          64.5851   83.0421   10.3288 N.ar    1  UNL1       -0.2223
     30 C          63.5503   83.9748    9.7728 C.ar    1  UNL1        0.1787
@<TRIPOS>BOND
     1    22    23    1
     2    23    24    1
     3    23    21    1
     4    21    19    1
     5    19    20    2
     6    19    18    1
     7    18    25    1
     8    25    26    1
     9    26    27   ar
    10    27    28   ar
    11    28    29   ar
    12    29    30   ar
    13    18     1    1
    14     1     2   am
    15     2     3    2
    16     2     5    1
    17     5     6   ar
    18     6     7   ar
    19     7     8   ar
    20     8     9   ar
    21     9    10   ar
    22    10    11   ar
    23    11    12   ar
    24    12    13   ar
    25    13    14   ar
    26    14    15   ar
    27    15    16   ar
    28    16    17   ar
    29    30    26   ar
    30     9     5   ar
    31    17    12   ar
    32    17     8   ar
    33     1     4    1
@<TRIPOS>MOLECULE
*****
 30 33 0 0 0
SMALL
GASTEIGER

@<TRIPOS>ATOM
      1 N          62.3788   87.9712   10.0693 N.am    1  UNL1       -0.2904
      2 C          61.9059   89.2542   10.6857 C.2     1  UNL1        0.2673
      3 O          60.4542   89.4372   11.0162 O.2     1  UNL1       -0.2684
      4 H          63.3316   87.8511    9.8524 H       1  UNL1        0.1503
      5 C          62.8848   90.3543   10.9718 C.ar    1  UNL1        0.1759
      6 N          63.2685   91.4593   10.0328 N.ar    1  UNL1       -0.0723
      7 O          64.2726   92.3304   10.7277 O.2     1  UNL1       -0.3533
      8 C          64.5094   91.7638   12.0962 C.ar    1  UNL1        0.1769
      9 C          63.6517   90.5425   12.2471 C.ar    1  UNL1        0.0625
     10 C          63.6799   89.7595   13.5262 C.ar    1  UNL1        0.0049
     11 C          64.5657   90.1979   14.6545 C.ar    1  UNL1        0.0003
     12 C          65.4235   91.4192   14.5037 C.ar    1  UNL1        0.0030
     13 C          66.3093   91.8575   15.6320 C.ar    1  UNL1        0.0001
     14 C          67.1670   93.0788   15.4811 C.ar    1  UNL1        0.0000
     15 C          67.1388   93.8618   14.2020 C.ar    1  UNL1        0.0001
     16 C          66.2530   93.4234   13.0737 C.ar    1  UNL1        0.0031
     17 C          65.3953   92.2022   13.2245 C.ar    1  UNL1        0.0372
     18 C          61.4000   86.8710    9.7832 C.3     1  UNL1        0.1945
     19 C          60.6710   86.8379    8.4727 C.2     1  UNL1        0.3369
     20 O          60.0391   88.0871    7.9342 O.2     1  UNL1       -0.2482
     21 O          60.5740   85.5555    7.7006 O.3     1  UNL1       -0.4511
     22 C          63.1270   85.0753    7.7408 C.3     1  UNL1        0.0473
     23 C          61.7968   84.9745    7.0547 C.3     1  UNL1        0.1691
     24 C          61.6895   84.2928    5.7229 C.3     1  UNL1        0.0473
     25 C          61.1503   85.8041   10.8075 C.3     1  UNL1        0.1386
     26 N          62.3064   85.1174   11.4724 N.ar    1  UNL1       -0.3055
     27 C          63.0375   83.9164   10.9500 C.ar    1  UNL1        0.0981
     28 C          64.1173   83.5681   11.9313 C.ar    1  UNL1        0.1193
     29 N          64.0534   84.5538   13.0601 N.ar    1  UNL1       -0.2223
     30 C          62.9342   85.5113   12.7765 C.ar    1  UNL1        0.1787
@<TRIPOS>BOND
     1    22    23    1
     2    23    24    1
     3    23    21    1
     4    21    19    1
     5    19    20    2
     6    19    18    1
     7    18    25    1
     8    25    26    1
     9    26    27   ar
    10    27    28   ar
    11    28    29   ar
    12    29    30   ar
    13    18     1    1
    14     1     2   am
    15     2     3    2
    16     2     5    1
    17     5     6   ar
    18     6     7   ar
    19     7     8   ar
    20     8     9   ar
    21     9    10   ar
    22    10    11   ar
    23    11    12   ar
    24    12    13   ar
    25    13    14   ar
    26    14    15   ar
    27    15    16   ar
    28    16    17   ar
    29    30    26   ar
    30     9     5   ar
    31    17    12   ar
    32    17     8   ar
    33     1     4    1
@<TRIPOS>MOLECULE
*****
 30 33 0 0 0
SMALL
GASTEIGER

@<TRIPOS>ATOM
      1 N          64.0324   88.6449   13.5732 N.am    1  UNL1       -0.2904
      2 C          63.7319   87.9614   14.8742 C.2     1  UNL1        0.2673
      3 O          63.4047   88.7752   16.0910 O.2     1  UNL1       -0.2684
      4 H          64.2471   88.1107   12.7746 H       1  UNL1        0.1503
      5 C          63.7586   86.4639   14.9583 C.ar    1  UNL1        0.1759
      6 N          64.0999   85.6551   16.1746 N.ar    1  UNL1       -0.0723
      7 O          64.0009   84.2037   15.8089 O.2     1  UNL1       -0.3533
      8 C          63.5984   84.1156   14.3666 C.ar    1  UNL1        0.1769
      9 C          63.4486   85.5124   13.8409 C.ar    1  UNL1        0.0625
     10 C          63.0494   85.7375   12.4126 C.ar    1  UNL1        0.0049
     11 C          62.7999   84.5657   11.5101 C.ar    1  UNL1        0.0003
     12 C          62.9497   83.1688   12.0358 C.ar    1  UNL1        0.0030
     13 C          62.7002   81.9970   11.1332 C.ar    1  UNL1        0.0001
     14 C          62.8499   80.6002   11.6589 C.ar    1  UNL1        0.0000
     15 C          63.2492   80.3752   13.0872 C.ar    1  UNL1        0.0001
     16 C          63.4986   81.5469   13.9897 C.ar    1  UNL1        0.0031
     17 C          63.3489   82.9437   13.4640 C.ar    1  UNL1        0.0372
     18 C          64.0057   90.1423   13.4890 C.3     1  UNL1        0.1945
     19 C          64.6727   90.9651   14.5511 C.2     1  UNL1        0.3369
     20 O          63.8427   91.7241   15.5436 O.2     1  UNL1       -0.2482
     21 O          66.1697   91.0290   14.6207 O.3     1  UNL1       -0.4511
     22 C          66.5785   93.5458   14.1218 C.3     1  UNL1        0.0473
     23 C          66.8507   92.3245   14.9492 C.3     1  UNL1        0.1691
     24 C          67.8037   92.3988   16.1051 C.3     1  UNL1        0.0473
     25 C          63.3121   90.8169   12.3428 C.3     1  UNL1        0.1386
     26 N          62.2884   90.0693   11.5408 N.ar    1  UNL1       -0.3055
     27 C          60.8678   89.8102   11.9466 C.ar    1  UNL1        0.0981
     28 C          60.2070   89.0302   10.8488 C.ar    1  UNL1        0.1193
     29 N          61.2193   88.8073    9.7646 N.ar    1  UNL1       -0.2223
     30 C          62.5057   89.4495   10.1923 C.ar    1  UNL1        0.1787
@<TRIPOS>BOND
     1    22    23    1
     2    23    24    1
     3    23    21    1
     4    21    19    1
     5    19    20    2
     6    19    18    1
     7    18    25    1
     8    25    26    1
     9    26    27   ar
    10    27    28   ar
    11    28    29   ar
    12    29    30   ar
    13    18     1    1
    14     1     2   am
    15     2     3    2
    16     2     5    1
    17     5     6   ar
    18     6     7   ar
    19     7     8   ar
    20     8     9   ar
    21     9    10   ar
    22    10    11   ar
    23    11    12   ar
    24    12    13   ar
    25    13    14   ar
    26    14    15   ar
    27    15    16   ar
    28    16    17   ar
    29    30    26   ar
    30     9     5   ar
    31    17    12   ar
    32    17     8   ar
    33     1     4    1
@<TRIPOS>MOLECULE
*****
 30 33 0 0 0
SMALL
GASTEIGER

@<TRIPOS>ATOM
      1 N          65.0565   89.8276   14.1571 N.am    1  UNL1       -0.2904
      2 C          63.8109   89.0139   14.3472 C.2     1  UNL1        0.2673
      3 O          62.4678   89.6814   14.3232 O.2     1  UNL1       -0.2684
      4 H          65.9379   89.3894   14.1728 H       1  UNL1        0.1503
      5 C          63.9084   87.5323   14.5615 C.ar    1  UNL1        0.1759
      6 N          64.3973   86.8516   15.8055 N.ar    1  UNL1       -0.0723
      7 O          64.3251   85.3701   15.5821 O.2     1  UNL1       -0.3533
      8 C          63.7916   85.1353   14.2000 C.ar    1  UNL1        0.1769
      9 C          63.5340   86.4715   13.5692 C.ar    1  UNL1        0.0625
     10 C          62.9919   86.5498   12.1728 C.ar    1  UNL1        0.0049
     11 C          62.7074   85.2917   11.4072 C.ar    1  UNL1        0.0003
     12 C          62.9649   83.9553   12.0379 C.ar    1  UNL1        0.0030
     13 C          62.6804   82.6972   11.2723 C.ar    1  UNL1        0.0001
     14 C          62.9379   81.3610   11.9031 C.ar    1  UNL1        0.0000
     15 C          63.4800   81.2827   13.2995 C.ar    1  UNL1        0.0001
     16 C          63.7646   82.5408   14.0652 C.ar    1  UNL1        0.0031
     17 C          63.5070   83.8771   13.4344 C.ar    1  UNL1        0.0372
     18 C          64.9591   91.3091   13.9428 C.3     1  UNL1        0.1945
     19 C          65.2063   92.2498   15.0848 C.2     1  UNL1        0.3369
     20 O          64.3999   92.1293   16.3438 O.2     1  UNL1       -0.2482
     21 O          66.2600   93.3110   14.9677 O.3     1  UNL1       -0.4511
     22 C          68.1851   91.6117   15.3634 C.3     1  UNL1        0.0473
     23 C          67.6684   93.0197   15.3937 C.3     1  UNL1        0.1691
     24 C          68.5601   94.1362   15.8500 C.3     1  UNL1        0.0473
     25 C          64.6145   91.8499   12.5868 C.3     1  UNL1        0.1386
     26 N          65.6846   92.4526   11.7257 N.ar    1  UNL1       -0.3055
     27 C          65.4820   93.5000   10.6712 C.ar    1  UNL1        0.0981
     28 C          66.8174   93.8085   10.0617 C.ar    1  UNL1        0.1193
     29 N          67.8452   92.9517   10.7394 N.ar    1  UNL1       -0.2223
     30 C          67.1452   92.1138   11.7678 C.ar    1  UNL1        0.1787
@<TRIPOS>BOND
     1    22    23    1
     2    23    24    1
     3    23    21    1
     4    21    19    1
     5    19    20    2
     6    19    18    1
     7    18    25    1
     8    25    26    1
     9    26    27   ar
    10    27    28   ar
    11    28    29   ar
    12    29    30   ar
    13    18     1    1
    14     1     2   am
    15     2     3    2
    16     2     5    1
    17     5     6   ar
    18     6     7   ar
    19     7     8   ar
    20     8     9   ar
    21     9    10   ar
    22    10    11   ar
    23    11    12   ar
    24    12    13   ar
    25    13    14   ar
    26    14    15   ar
    27    15    16   ar
    28    16    17   ar
    29    30    26   ar
    30     9     5   ar
    31    17    12   ar
    32    17     8   ar
    33     1     4    1
@<TRIPOS>MOLECULE
*****
 30 33 0 0 0
SMALL
GASTEIGER

@<TRIPOS>ATOM
      1 N          62.8975   87.3686   11.4616 N.am    1  UNL1       -0.2904
      2 C          62.2659   88.7117   11.2447 C.2     1  UNL1        0.2673
      3 O          60.8157   88.8075   10.8736 O.2     1  UNL1       -0.2684
      4 H          63.8493   87.3058   11.7051 H       1  UNL1        0.1503
      5 C          63.0846   89.9592   11.3989 C.ar    1  UNL1        0.1759
      6 N          63.2081   91.0630   10.3908 N.ar    1  UNL1       -0.0723
      7 O          64.1233   92.1078   10.9572 O.2     1  UNL1       -0.3533
      8 C          64.5654   91.6496   12.3154 C.ar    1  UNL1        0.1769
      9 C          63.9235   90.3217   12.5884 C.ar    1  UNL1        0.0625
     10 C          64.1857   89.6143   13.8848 C.ar    1  UNL1        0.0049
     11 C          65.0899   90.2348   14.9083 C.ar    1  UNL1        0.0003
     12 C          65.7319   91.5627   14.6353 C.ar    1  UNL1        0.0030
     13 C          66.6361   92.1832   15.6587 C.ar    1  UNL1        0.0001
     14 C          67.2781   93.5110   15.3856 C.ar    1  UNL1        0.0000
     15 C          67.0158   94.2185   14.0892 C.ar    1  UNL1        0.0001
     16 C          66.1116   93.5980   13.0658 C.ar    1  UNL1        0.0031
     17 C          65.4697   92.2701   13.3388 C.ar    1  UNL1        0.0372
     18 C          62.0789   86.1211   11.3074 C.3     1  UNL1        0.1945
     19 C          62.3080   84.9558   12.2236 C.2     1  UNL1        0.3369
     20 O          62.4598   83.5751   11.6575 O.2     1  UNL1       -0.2482
     21 O          62.3852   85.1712   13.7061 O.3     1  UNL1       -0.4511
     22 C          64.5079   86.1520   14.8385 C.3     1  UNL1        0.0473
     23 C          63.6848   84.9674   14.4269 C.3     1  UNL1        0.1691
     24 C          64.1613   83.5791   14.7360 C.3     1  UNL1        0.0473
     25 C          61.0313   86.0389   10.2370 C.3     1  UNL1        0.1386
     26 N          61.4083   85.6102    8.8499 N.ar    1  UNL1       -0.3055
     27 C          60.4993   85.5853    7.6570 C.ar    1  UNL1        0.0981
     28 C          61.2898   85.0908    6.4820 C.ar    1  UNL1        0.1193
     29 N          62.6874   84.8100    6.9488 N.ar    1  UNL1       -0.2223
     30 C          62.7607   85.1310    8.4122 C.ar    1  UNL1        0.1787
@<TRIPOS>BOND
     1    22    23    1
     2    23    24    1
     3    23    21    1
     4    21    19    1
     5    19    20    2
     6    19    18    1
     7    18    25    1
     8    25    26    1
     9    26    27   ar
    10    27    28   ar
    11    28    29   ar
    12    29    30   ar
    13    18     1    1
    14     1     2   am
    15     2     3    2
    16     2     5    1
    17     5     6   ar
    18     6     7   ar
    19     7     8   ar
    20     8     9   ar
    21     9    10   ar
    22    10    11   ar
    23    11    12   ar
    24    12    13   ar
    25    13    14   ar
    26    14    15   ar
    27    15    16   ar
    28    16    17   ar
    29    30    26   ar
    30     9     5   ar
    31    17    12   ar
    32    17     8   ar
    33     1     4    1
@<TRIPOS>MOLECULE
*****
 30 33 0 0 0
SMALL
GASTEIGER

@<TRIPOS>ATOM
      1 N          63.7519   89.8861   13.7346 N.am    1  UNL1       -0.2904
      2 C          63.9080   88.3963   13.6591 C.2     1  UNL1        0.2673
      3 O          64.7971   87.6848   14.6356 O.2     1  UNL1       -0.2684
      4 H          63.1684   90.3530   13.0936 H       1  UNL1        0.1503
      5 C          63.1751   87.6177   12.6070 C.ar    1  UNL1        0.1759
      6 N          63.1390   86.1235   12.4808 N.ar    1  UNL1       -0.0723
      7 O          62.2911   85.7790   11.2923 O.2     1  UNL1       -0.3533
      8 C          61.8033   87.0604   10.6840 C.ar    1  UNL1        0.1769
      9 C          62.3496   88.1968   11.4965 C.ar    1  UNL1        0.0625
     10 C          62.0247   89.6120   11.1202 C.ar    1  UNL1        0.0049
     11 C          61.1536   89.8909    9.9314 C.ar    1  UNL1        0.0003
     12 C          60.6073   88.7545    9.1188 C.ar    1  UNL1        0.0030
     13 C          59.7362   89.0333    7.9300 C.ar    1  UNL1        0.0001
     14 C          59.1899   87.8970    7.1175 C.ar    1  UNL1        0.0000
     15 C          59.5147   86.4817    7.4938 C.ar    1  UNL1        0.0001
     16 C          60.3859   86.2029    8.6826 C.ar    1  UNL1        0.0031
     17 C          60.9321   87.3392    9.4951 C.ar    1  UNL1        0.0372
     18 C          64.4848   90.6648   14.7866 C.3     1  UNL1        0.1945
     19 C          63.8678   90.8625   16.1394 C.2     1  UNL1        0.3369
     20 O          63.3655   92.2167   16.5440 O.2     1  UNL1       -0.2482
     21 O          63.7530   89.7059   17.0876 O.3     1  UNL1       -0.4511
     22 C          61.4232   89.0560   16.1392 C.3     1  UNL1        0.0473
     23 C          62.6591   88.6952   16.9090 C.3     1  UNL1        0.1691
     24 C          62.8011   87.3239   17.5000 C.3     1  UNL1        0.0473
     25 C          65.8347   91.2457   14.4857 C.3     1  UNL1        0.1386
     26 N          65.9655   92.3664   13.4974 N.ar    1  UNL1       -0.3055
     27 C          65.4895   92.3477   12.0751 C.ar    1  UNL1        0.0981
     28 C          65.8251   93.6724   11.4565 C.ar    1  UNL1        0.1193
     29 N          66.5086   94.5097   12.4966 N.ar    1  UNL1       -0.2223
     30 C          66.5953   93.7026   13.7579 C.ar    1  UNL1        0.1787
@<TRIPOS>BOND
     1    22    23    1
     2    23    24    1
     3    23    21    1
     4    21    19    1
     5    19    20    2
     6    19    18    1
     7    18    25    1
     8    25    26    1
     9    26    27   ar
    10    27    28   ar
    11    28    29   ar
    12    29    30   ar
    13    18     1    1
    14     1     2   am
    15     2     3    2
    16     2     5    1
    17     5     6   ar
    18     6     7   ar
    19     7     8   ar
    20     8     9   ar
    21     9    10   ar
    22    10    11   ar
    23    11    12   ar
    24    12    13   ar
    25    13    14   ar
    26    14    15   ar
    27    15    16   ar
    28    16    17   ar
    29    30    26   ar
    30     9     5   ar
    31    17    12   ar
    32    17     8   ar
    33     1     4    1
@<TRIPOS>MOLECULE
*****
 30 33 0 0 0
SMALL
GASTEIGER

@<TRIPOS>ATOM
      1 N          63.8617   89.8279   12.0570 N.am    1  UNL1       -0.2904
      2 C          63.5320   88.7297   13.0241 C.2     1  UNL1        0.2673
      3 O          63.6205   88.9789   14.5006 O.2     1  UNL1       -0.2684
      4 H          63.8036   89.6643   11.0879 H       1  UNL1        0.1503
      5 C          63.1139   87.3822   12.5146 C.ar    1  UNL1        0.1759
      6 N          62.2907   87.1197   11.2884 N.ar    1  UNL1       -0.0723
      7 O          62.1136   85.6360   11.1578 O.2     1  UNL1       -0.3533
      8 C          62.8273   84.9814   12.3033 C.ar    1  UNL1        0.1769
      9 C          63.4455   86.0606   13.1418 C.ar    1  UNL1        0.0625
     10 C          64.2305   85.7005   14.3682 C.ar    1  UNL1        0.0049
     11 C          64.3974   84.2612   14.7561 C.ar    1  UNL1        0.0003
     12 C          63.7791   83.1819   13.9176 C.ar    1  UNL1        0.0030
     13 C          63.9460   81.7426   14.3055 C.ar    1  UNL1        0.0001
     14 C          63.3278   80.6634   13.4670 C.ar    1  UNL1        0.0000
     15 C          62.5427   81.0235   12.2406 C.ar    1  UNL1        0.0001
     16 C          62.3759   82.4629   11.8527 C.ar    1  UNL1        0.0031
     17 C          62.9941   83.5420   12.6912 C.ar    1  UNL1        0.0372
     18 C          64.2798   91.1754   12.5664 C.3     1  UNL1        0.1945
     19 C          64.7774   91.3238   13.9737 C.2     1  UNL1        0.3369
     20 O          63.8112   91.6113   15.0844 O.2     1  UNL1       -0.2482
     21 O          66.2412   91.1847   14.2702 O.3     1  UNL1       -0.4511
     22 C          68.0515   92.1126   15.8863 C.3     1  UNL1        0.0473
     23 C          67.0052   92.3446   14.8368 C.3     1  UNL1        0.1691
     24 C          66.7229   93.7363   14.3538 C.3     1  UNL1        0.0473
     25 C          64.2004   92.3744   11.6686 C.3     1  UNL1        0.1386
     26 N          65.4570   92.9996   11.1394 N.ar    1  UNL1       -0.3055
     27 C          65.6244   94.4333   10.7314 C.ar    1  UNL1        0.0981
     28 C          67.0377   94.6205   10.2651 C.ar    1  UNL1        0.1193
     29 N          67.7438   93.3026   10.3849 N.ar    1  UNL1       -0.2223
     30 C          66.7669   92.3008   10.9253 C.ar    1  UNL1        0.1787
@<TRIPOS>BOND
     1    22    23    1
     2    23    24    1
     3    23    21    1
     4    21    19    1
     5    19    20    2
     6    19    18    1
     7    18    25    1
     8    25    26    1
     9    26    27   ar
    10    27    28   ar
    11    28    29   ar
    12    29    30   ar
    13    18     1    1
    14     1     2   am
    15     2     3    2
    16     2     5    1
    17     5     6   ar
    18     6     7   ar
    19     7     8   ar
    20     8     9   ar
    21     9    10   ar
    22    10    11   ar
    23    11    12   ar
    24    12    13   ar
    25    13    14   ar
    26    14    15   ar
    27    15    16   ar
    28    16    17   ar
    29    30    26   ar
    30     9     5   ar
    31    17    12   ar
    32    17     8   ar
    33     1     4    1
