@<TRIPOS>MOLECULE
*****
 35 39 0 0 0
SMALL
GASTEIGER

@<TRIPOS>ATOM
      1 C          63.3345   86.1945   10.2096 C.3     1  UNL1        0.0473
      2 C          63.0232   85.1090   11.1970 C.3     1  UNL1        0.1699
      3 O          62.5842   83.7138   10.8642 O.3     1  UNL1       -0.4521
      4 C          62.3859   82.9706   12.1519 C.2     1  UNL1        0.3217
      5 O          61.9434   81.5560   11.9219 O.2     1  UNL1       -0.2499
      6 C          62.7024   83.9065   13.2807 C.3     1  UNL1        0.1588
      7 C          62.6828   83.7261   14.7696 C.3     1  UNL1        0.0830
      8 C          63.0571   84.8672   15.6684 C.3     1  UNL1        0.2648
      9 F          63.3272   85.6428   16.9235 F       1  UNL1       -0.2043
     10 F          62.7570   83.8150   16.6945 F       1  UNL1       -0.2043
     11 C          63.4509   86.1887   15.0782 C.3     1  UNL1        0.0655
     12 C          63.8252   87.3298   15.9770 C.3     1  UNL1        0.0060
     13 C          63.4705   86.3692   13.5892 C.3     1  UNL1        0.0315
     14 C          63.0962   85.2281   12.6904 C.3     1  UNL1        0.0601
     15 C          62.2893   82.5342   13.7235 C.3     1  UNL1        0.3020
     16 N          63.2124   81.4220   14.1244 N.2     1  UNL1       -0.1365
     17 N          62.3741   80.2335   14.4919 N.am    1  UNL1       -0.0430
     18 C          60.9329   80.6113   14.3182 C.2     1  UNL1        0.4442
     19 O          59.7516   79.7232   14.5743 O.2     1  UNL1       -0.2225
     20 O          60.8805   82.0333   13.8433 O.3     1  UNL1       -0.4107
     21 C          63.8644   87.6908   12.9990 C.2     1  UNL1       -0.0246
     22 C          64.2124   88.8398   13.8982 C.2     1  UNL1        0.0145
     23 C          64.6063   90.1614   13.3080 C.ar    1  UNL1        0.0810
     24 C          63.9583   90.6408   12.0429 C.ar    1  UNL1        0.0191
     25 C          64.3521   91.9624   11.4526 C.ar    1  UNL1        0.0031
     26 C          65.3939   92.8045   12.1274 C.ar    1  UNL1        0.0193
     27 C          66.0419   92.3251   13.3925 C.ar    1  UNL1        0.0988
     28 N          65.6481   91.0036   13.9828 N.ar    1  UNL1       -0.2438
     29 C          65.7878   94.1261   11.5372 C.ar    1  UNL1        0.0037
     30 C          66.0519   95.2991   12.4340 C.ar    1  UNL1        0.0002
     31 C          66.4458   96.6206   11.8438 C.ar    1  UNL1        0.0023
     32 C          66.5755   96.7691   10.3568 C.ar    1  UNL1        0.0296
     33 C          66.3114   95.5962    9.4600 C.ar    1  UNL1        0.1401
     34 F          66.4411   95.7447    7.9730 F       1  UNL1       -0.2042
     35 C          65.9175   94.2746   10.0502 C.ar    1  UNL1        0.0297
@<TRIPOS>BOND
     1     2     1    1
     2     2     3    1
     3     3     4    1
     4     4     5    2
     5     4     6    1
     6     6    15    1
     7    15    16    1
     8    16    17    2
     9    17    18    1
    10    18    19    2
    11    18    20    1
    12     6     7    1
    13     7     8    1
    14     8     9    1
    15     8    10    1
    16     8    11    1
    17    11    12    1
    18    11    13    1
    19    13    21    1
    20    21    22    2
    21    22    23    1
    22    23    24   ar
    23    24    25   ar
    24    25    26   ar
    25    26    29    1
    26    29    30   ar
    27    30    31   ar
    28    31    32   ar
    29    32    33   ar
    30    33    34    1
    31    33    35   ar
    32    26    27   ar
    33    27    28   ar
    34    13    14    1
    35    14     2    1
    36    14     6    1
    37    20    15    1
    38    28    23   ar
    39    35    29   ar
@<TRIPOS>MOLECULE
*****
 35 39 0 0 0
SMALL
GASTEIGER

@<TRIPOS>ATOM
      1 C          64.6119   88.1271   14.9994 C.3     1  UNL1        0.0473
      2 C          64.8694   89.4334   14.3086 C.3     1  UNL1        0.1699
      3 O          65.7849   90.5198   14.7897 O.3     1  UNL1       -0.4521
      4 C          65.7380   91.6405   13.7939 C.2     1  UNL1        0.3217
      5 O          66.6271   92.7817   14.1900 O.2     1  UNL1       -0.2499
      6 C          64.7933   91.2468   12.6972 C.3     1  UNL1        0.1588
      7 C          64.3526   91.9542   11.4501 C.3     1  UNL1        0.0830
      8 C          63.3751   91.2974   10.5210 C.3     1  UNL1        0.2648
      9 F          62.4755   91.0894    9.3389 F       1  UNL1       -0.2043
     10 F          63.5994   92.5892    9.7923 F       1  UNL1       -0.2043
     11 C          62.8383   89.9335   10.8391 C.3     1  UNL1        0.0655
     12 C          61.8607   89.2767    9.9100 C.3     1  UNL1        0.0060
     13 C          63.2790   89.2260   12.0863 C.3     1  UNL1        0.0315
     14 C          64.2565   89.8828   13.0153 C.3     1  UNL1        0.0601
     15 C          65.4128   92.6003   12.5122 C.3     1  UNL1        0.3020
     16 N          65.4440   93.7022   13.5295 N.2     1  UNL1       -0.1365
     17 N          66.1603   94.8725   12.9234 N.am    1  UNL1       -0.0430
     18 C          66.5718   94.4939   11.5316 C.2     1  UNL1        0.4442
     19 O          67.3148   95.3664   10.5637 O.2     1  UNL1       -0.2225
     20 O          66.1098   93.0896   11.2774 O.3     1  UNL1       -0.4107
     21 C          62.7421   87.8619   12.4043 C.2     1  UNL1       -0.0246
     22 C          63.6497   86.6687   12.3559 C.2     1  UNL1        0.0145
     23 C          63.1128   85.3047   12.6739 C.ar    1  UNL1        0.0810
     24 C          63.0032   84.2709   11.5926 C.ar    1  UNL1        0.0191
     25 C          62.4663   82.9069   11.9105 C.ar    1  UNL1        0.0031
     26 C          62.0389   82.5766   13.3099 C.ar    1  UNL1        0.0193
     27 C          62.1485   83.6104   14.3913 C.ar    1  UNL1        0.0988
     28 N          62.6855   84.9744   14.0733 N.ar    1  UNL1       -0.2438
     29 C          61.5020   81.2126   13.6280 C.ar    1  UNL1        0.0037
     30 C          62.3737   80.0043   13.4544 C.ar    1  UNL1        0.0002
     31 C          61.8367   78.6403   13.7725 C.ar    1  UNL1        0.0023
     32 C          60.4282   78.4846   14.2640 C.ar    1  UNL1        0.0296
     33 C          59.5565   79.6929   14.4376 C.ar    1  UNL1        0.1401
     34 F          58.1479   79.5372   14.9292 F       1  UNL1       -0.2042
     35 C          60.0934   81.0569   14.1196 C.ar    1  UNL1        0.0297
@<TRIPOS>BOND
     1     2     1    1
     2     2     3    1
     3     3     4    1
     4     4     5    2
     5     4     6    1
     6     6    15    1
     7    15    16    1
     8    16    17    2
     9    17    18    1
    10    18    19    2
    11    18    20    1
    12     6     7    1
    13     7     8    1
    14     8     9    1
    15     8    10    1
    16     8    11    1
    17    11    12    1
    18    11    13    1
    19    13    21    1
    20    21    22    2
    21    22    23    1
    22    23    24   ar
    23    24    25   ar
    24    25    26   ar
    25    26    29    1
    26    29    30   ar
    27    30    31   ar
    28    31    32   ar
    29    32    33   ar
    30    33    34    1
    31    33    35   ar
    32    26    27   ar
    33    27    28   ar
    34    13    14    1
    35    14     2    1
    36    14     6    1
    37    20    15    1
    38    28    23   ar
    39    35    29   ar
