@<TRIPOS>MOLECULE
*****
 34 38 0 0 0
SMALL
GASTEIGER

@<TRIPOS>ATOM
      1 C          62.7808   86.8613   11.8947 C.2     1  UNL1        0.2506
      2 O          63.5948   87.4961   12.9829 O.2     1  UNL1       -0.2699
      3 N          61.7730   87.6761   11.1395 N.am    1  UNL1       -0.2724
      4 C          60.9589   87.0413   10.0512 C.3     1  UNL1        0.1231
      5 C          59.9510   87.8561    9.2961 C.3     1  UNL1        0.1351
      6 C          59.1370   87.2212    8.2078 C.3     1  UNL1        0.0339
      7 O          59.7572   89.3057    9.6292 O.3     1  UNL1       -0.3527
      8 C          60.5712   89.9405   10.7175 C.3     1  UNL1        0.1621
      9 C          61.5791   89.1257   11.4727 C.3     1  UNL1        0.1097
     10 C          63.5563   81.0627   10.5621 C.3     1  UNL1        0.0311
     11 C          63.3624   82.5124   10.8953 C.ar    1  UNL1       -0.0203
     12 C          63.2163   83.5217    9.7953 C.ar    1  UNL1       -0.0040
     13 C          63.0224   84.9713   10.1285 C.ar    1  UNL1        0.0058
     14 C          62.9747   85.4116   11.5615 C.ar    1  UNL1        0.0729
     15 C          63.1208   84.4023   12.6615 C.ar    1  UNL1        0.1069
     16 C          63.3147   82.9527   12.3283 C.ar    1  UNL1        0.0168
     17 N          63.0731   84.8427   14.0947 N.ar    1  UNL1       -0.1477
     18 N          64.2149   85.4189   14.8785 N.ar    1  UNL1       -0.1447
     19 C          63.7227   85.7164   16.2638 C.ar    1  UNL1        0.1446
     20 C          62.2767   85.3241   16.3362 C.ar    1  UNL1        0.1446
     21 N          61.8752   84.7841   14.9956 N.ar    1  UNL1       -0.1447
     22 C          62.3931   89.7605   12.5609 C.3     1  UNL1        0.0510
     23 C          63.5075   90.7019   12.2120 C.ar    1  UNL1        0.0085
     24 C          64.5179   91.0863   13.2518 C.ar    1  UNL1        0.0172
     25 C          65.6323   92.0277   12.9028 C.ar    1  UNL1        0.0843
     26 C          65.7364   92.5847   11.5140 C.ar    1  UNL1        0.0215
     27 C          64.7260   92.2003   10.4742 C.ar    1  UNL1        0.0309
     28 C          63.6116   91.2589   10.8232 C.ar    1  UNL1        0.1363
     29 F          62.6012   90.8745    9.7832 F       1  UNL1       -0.2045
     30 N          66.6428   92.4121   13.9428 N.ar    1  UNL1       -0.2089
     31 C          66.3511   92.7371   15.3778 C.ar    1  UNL1        0.1245
     32 C          67.6502   93.0648   16.0522 C.ar    1  UNL1        0.1445
     33 N          68.7448   92.9424   15.0339 N.ar    1  UNL1       -0.1268
     34 N          68.1222   92.5390   13.7303 N.ar    1  UNL1       -0.0595
@<TRIPOS>BOND
     1    10    11    1
     2    11    12   ar
     3    12    13   ar
     4    13    14   ar
     5    14     1    1
     6     1     2    2
     7     1     3   am
     8     3     4    1
     9     4     5    1
    10     5     6    1
    11     5     7    1
    12     7     8    1
    13     8     9    1
    14     9    22    1
    15    22    23    1
    16    23    24   ar
    17    24    25   ar
    18    25    30    1
    19    30    31   ar
    20    31    32   ar
    21    32    33   ar
    22    33    34   ar
    23    25    26   ar
    24    26    27   ar
    25    27    28   ar
    26    28    29    1
    27    14    15   ar
    28    15    17    1
    29    17    18   ar
    30    18    19   ar
    31    19    20   ar
    32    20    21   ar
    33    15    16   ar
    34    16    11   ar
    35     9     3    1
    36    28    23   ar
    37    21    17   ar
    38    34    30   ar
@<TRIPOS>MOLECULE
*****
 34 38 0 0 0
SMALL
GASTEIGER

@<TRIPOS>ATOM
      1 C          62.9619   87.1628   12.2950 C.2     1  UNL1        0.2506
      2 O          63.5940   87.5682   13.5935 O.2     1  UNL1       -0.2699
      3 N          62.2273   88.1772   11.4696 N.am    1  UNL1       -0.2724
      4 C          61.5951   87.7718   10.1711 C.3     1  UNL1        0.1231
      5 C          60.8606   88.7862    9.3456 C.3     1  UNL1        0.1351
      6 C          60.2284   88.3808    8.0471 C.3     1  UNL1        0.0339
      7 O          60.7582   90.2060    9.8185 O.3     1  UNL1       -0.3527
      8 C          61.3903   90.6114   11.1170 C.3     1  UNL1        0.1621
      9 C          62.1249   89.5970   11.9425 C.3     1  UNL1        0.1097
     10 C          63.3714   81.4836   10.4032 C.3     1  UNL1        0.0311
     11 C          63.2690   82.9034   10.8761 C.ar    1  UNL1       -0.0203
     12 C          63.1856   84.0217    9.8799 C.ar    1  UNL1       -0.0040
     13 C          63.0832   85.4415   10.3529 C.ar    1  UNL1        0.0058
     14 C          63.0642   85.7430   11.8221 C.ar    1  UNL1        0.0729
     15 C          63.1477   84.6248   12.8183 C.ar    1  UNL1        0.1069
     16 C          63.2500   83.2050   12.3454 C.ar    1  UNL1        0.0168
     17 N          63.1287   84.9263   14.2876 N.ar    1  UNL1       -0.1477
     18 N          64.3056   85.3485   15.1163 N.ar    1  UNL1       -0.1447
     19 C          63.8339   85.5417   16.5270 C.ar    1  UNL1        0.1446
     20 C          62.3653   85.2390   16.5702 C.ar    1  UNL1        0.1446
     21 N          61.9295   84.8587   15.1862 N.ar    1  UNL1       -0.1447
     22 C          62.7571   90.0024   13.2410 C.3     1  UNL1        0.0510
     23 C          64.0782   90.7128   13.2424 C.ar    1  UNL1        0.0085
     24 C          64.4451   91.6163   12.1027 C.ar    1  UNL1        0.0172
     25 C          65.7662   92.3267   12.1041 C.ar    1  UNL1        0.0843
     26 C          66.7204   92.1336   13.2452 C.ar    1  UNL1        0.0215
     27 C          66.3535   91.2301   14.3849 C.ar    1  UNL1        0.0309
     28 C          65.0324   90.5197   14.3835 C.ar    1  UNL1        0.1363
     29 F          64.6654   89.6161   15.5233 F       1  UNL1       -0.2045
     30 N          66.1332   93.2303   10.9643 N.ar    1  UNL1       -0.2089
     31 C          67.1854   92.9614    9.9296 C.ar    1  UNL1        0.1245
     32 C          67.2148   94.1262    8.9849 C.ar    1  UNL1        0.1445
     33 N          66.1808   95.1150    9.4359 N.ar    1  UNL1       -0.1268
     34 N          65.5124   94.5612   10.6592 N.ar    1  UNL1       -0.0595
@<TRIPOS>BOND
     1    10    11    1
     2    11    12   ar
     3    12    13   ar
     4    13    14   ar
     5    14     1    1
     6     1     2    2
     7     1     3   am
     8     3     4    1
     9     4     5    1
    10     5     6    1
    11     5     7    1
    12     7     8    1
    13     8     9    1
    14     9    22    1
    15    22    23    1
    16    23    24   ar
    17    24    25   ar
    18    25    30    1
    19    30    31   ar
    20    31    32   ar
    21    32    33   ar
    22    33    34   ar
    23    25    26   ar
    24    26    27   ar
    25    27    28   ar
    26    28    29    1
    27    14    15   ar
    28    15    17    1
    29    17    18   ar
    30    18    19   ar
    31    19    20   ar
    32    20    21   ar
    33    15    16   ar
    34    16    11   ar
    35     9     3    1
    36    28    23   ar
    37    21    17   ar
    38    34    30   ar
@<TRIPOS>MOLECULE
*****
 34 38 0 0 0
SMALL
GASTEIGER

@<TRIPOS>ATOM
      1 C          62.6571   88.7387   11.6046 C.2     1  UNL1        0.2506
      2 O          62.5331   90.2328   11.5576 O.2     1  UNL1       -0.2699
      3 N          63.3509   88.0797   12.7597 N.am    1  UNL1       -0.2724
      4 C          63.4749   86.5856   12.8067 C.3     1  UNL1        0.1231
      5 C          64.1687   85.9265   13.9618 C.3     1  UNL1        0.1351
      6 C          64.2927   84.4324   14.0088 C.3     1  UNL1        0.0339
      7 O          64.7385   86.7616   15.0699 O.3     1  UNL1       -0.3527
      8 C          64.6145   88.2557   15.0229 C.3     1  UNL1        0.1621
      9 C          63.9207   88.9148   13.8678 C.3     1  UNL1        0.1097
     10 C          60.3778   85.3984    7.1721 C.3     1  UNL1        0.0311
     11 C          60.9476   86.2335    8.2802 C.ar    1  UNL1       -0.0203
     12 C          62.4011   86.1206    8.6331 C.ar    1  UNL1       -0.0040
     13 C          62.9709   86.9557    9.7412 C.ar    1  UNL1        0.0058
     14 C          62.0872   87.9037   10.4964 C.ar    1  UNL1        0.0729
     15 C          60.6337   88.0165   10.1436 C.ar    1  UNL1        0.1069
     16 C          60.0639   87.1814    9.0354 C.ar    1  UNL1        0.0168
     17 N          59.7500   88.9645   10.8988 N.ar    1  UNL1       -0.1477
     18 N          59.5072   90.4050   10.5579 N.ar    1  UNL1       -0.1447
     19 C          58.5611   90.9692   11.5759 C.ar    1  UNL1        0.1446
     20 C          58.2191   89.8774   12.5461 C.ar    1  UNL1        0.1446
     21 N          58.9539   88.6385   12.1276 N.ar    1  UNL1       -0.1447
     22 C          63.7967   90.4089   13.8208 C.3     1  UNL1        0.0510
     23 C          65.0288   91.2622   13.7596 C.ar    1  UNL1        0.0085
     24 C          65.6212   91.6300   12.4315 C.ar    1  UNL1        0.0172
     25 C          66.8533   92.4833   12.3703 C.ar    1  UNL1        0.0843
     26 C          67.4931   92.9688   13.6372 C.ar    1  UNL1        0.0215
     27 C          66.9007   92.6010   14.9652 C.ar    1  UNL1        0.0309
     28 C          65.6686   91.7477   15.0264 C.ar    1  UNL1        0.1363
     29 F          65.0763   91.3799   16.3546 F       1  UNL1       -0.2045
     30 N          67.4456   92.8511   11.0422 N.ar    1  UNL1       -0.2089
     31 C          68.1906   91.9288   10.1232 C.ar    1  UNL1        0.1245
     32 C          68.6024   92.7134    8.9129 C.ar    1  UNL1        0.1445
     33 N          68.1119   94.1207    9.0839 N.ar    1  UNL1       -0.1268
     34 N          67.3970   94.2057   10.3998 N.ar    1  UNL1       -0.0595
@<TRIPOS>BOND
     1    10    11    1
     2    11    12   ar
     3    12    13   ar
     4    13    14   ar
     5    14     1    1
     6     1     2    2
     7     1     3   am
     8     3     4    1
     9     4     5    1
    10     5     6    1
    11     5     7    1
    12     7     8    1
    13     8     9    1
    14     9    22    1
    15    22    23    1
    16    23    24   ar
    17    24    25   ar
    18    25    30    1
    19    30    31   ar
    20    31    32   ar
    21    32    33   ar
    22    33    34   ar
    23    25    26   ar
    24    26    27   ar
    25    27    28   ar
    26    28    29    1
    27    14    15   ar
    28    15    17    1
    29    17    18   ar
    30    18    19   ar
    31    19    20   ar
    32    20    21   ar
    33    15    16   ar
    34    16    11   ar
    35     9     3    1
    36    28    23   ar
    37    21    17   ar
    38    34    30   ar
@<TRIPOS>MOLECULE
*****
 34 38 0 0 0
SMALL
GASTEIGER

@<TRIPOS>ATOM
      1 C          63.4777   87.6930   13.3080 C.2     1  UNL1        0.2506
      2 O          63.6294   88.7424   12.2470 O.2     1  UNL1       -0.2699
      3 N          63.3561   88.0947   14.7481 N.am    1  UNL1       -0.2724
      4 C          63.2044   87.0453   15.8092 C.3     1  UNL1        0.1231
      5 C          63.0827   87.4469   17.2492 C.3     1  UNL1        0.1351
      6 C          62.9310   86.3975   18.3103 C.3     1  UNL1        0.0339
      7 O          63.1128   88.8979   17.6283 O.3     1  UNL1       -0.3527
      8 C          63.2645   89.9473   16.5673 C.3     1  UNL1        0.1621
      9 C          63.3861   89.5457   15.1272 C.3     1  UNL1        0.1097
     10 C          63.3576   81.8890   11.7917 C.3     1  UNL1        0.0311
     11 C          63.3877   83.3400   12.1708 C.ar    1  UNL1       -0.0203
     12 C          64.2391   83.7981   13.3176 C.ar    1  UNL1       -0.0040
     13 C          64.2692   85.2491   13.6966 C.ar    1  UNL1        0.0058
     14 C          63.4477   86.2420   12.9289 C.ar    1  UNL1        0.0729
     15 C          62.5963   85.7839   11.7822 C.ar    1  UNL1        0.1069
     16 C          62.5662   84.3329   11.4031 C.ar    1  UNL1        0.0168
     17 N          61.7748   86.7768   11.0144 N.ar    1  UNL1       -0.1477
     18 N          60.5390   87.4687   11.5088 N.ar    1  UNL1       -0.1447
     19 C          60.0453   88.3716   10.4175 C.ar    1  UNL1        0.1446
     20 C          60.9759   88.2378    9.2487 C.ar    1  UNL1        0.1446
     21 N          62.0447   87.2521    9.6176 N.ar    1  UNL1       -0.1447
     22 C          63.5378   90.5950   14.0662 C.3     1  UNL1        0.0510
     23 C          64.7829   91.4297   14.0093 C.ar    1  UNL1        0.0085
     24 C          65.4506   91.6918   12.6920 C.ar    1  UNL1        0.0172
     25 C          66.6956   92.5264   12.6352 C.ar    1  UNL1        0.0843
     26 C          67.2729   93.0989   13.8957 C.ar    1  UNL1        0.0215
     27 C          66.6052   92.8368   15.2130 C.ar    1  UNL1        0.0309
     28 C          65.3602   92.0022   15.2698 C.ar    1  UNL1        0.1363
     29 F          64.6925   91.7400   16.5872 F       1  UNL1       -0.2045
     30 N          67.3633   92.7886   11.3178 N.ar    1  UNL1       -0.2089
     31 C          66.9024   93.7623   10.2740 C.ar    1  UNL1        0.1245
     32 C          67.8634   93.6986    9.1240 C.ar    1  UNL1        0.1445
     33 N          68.9182   92.6854    9.4570 N.ar    1  UNL1       -0.1268
     34 N          68.6091   92.1230   10.8128 N.ar    1  UNL1       -0.0595
@<TRIPOS>BOND
     1    10    11    1
     2    11    12   ar
     3    12    13   ar
     4    13    14   ar
     5    14     1    1
     6     1     2    2
     7     1     3   am
     8     3     4    1
     9     4     5    1
    10     5     6    1
    11     5     7    1
    12     7     8    1
    13     8     9    1
    14     9    22    1
    15    22    23    1
    16    23    24   ar
    17    24    25   ar
    18    25    30    1
    19    30    31   ar
    20    31    32   ar
    21    32    33   ar
    22    33    34   ar
    23    25    26   ar
    24    26    27   ar
    25    27    28   ar
    26    28    29    1
    27    14    15   ar
    28    15    17    1
    29    17    18   ar
    30    18    19   ar
    31    19    20   ar
    32    20    21   ar
    33    15    16   ar
    34    16    11   ar
    35     9     3    1
    36    28    23   ar
    37    21    17   ar
    38    34    30   ar
@<TRIPOS>MOLECULE
*****
 34 38 0 0 0
SMALL
GASTEIGER

@<TRIPOS>ATOM
      1 C          65.0280   91.2187   12.7823 C.2     1  UNL1        0.2506
      2 O          65.7893   90.8121   14.0090 O.2     1  UNL1       -0.2699
      3 N          63.9219   90.3486   12.2633 N.am    1  UNL1       -0.2724
      4 C          63.1605   90.7552   11.0365 C.3     1  UNL1        0.1231
      5 C          62.0545   89.8851   10.5174 C.3     1  UNL1        0.1351
      6 C          61.2931   90.2917    9.2906 C.3     1  UNL1        0.0339
      7 O          61.7098   88.6082   11.2252 O.3     1  UNL1       -0.3527
      8 C          62.4711   88.2016   12.4519 C.3     1  UNL1        0.1621
      9 C          63.5772   89.0717   12.9710 C.3     1  UNL1        0.1097
     10 C          66.4068   96.3261    9.9514 C.3     1  UNL1        0.0311
     11 C          66.0621   95.0493   10.6591 C.ar    1  UNL1       -0.0203
     12 C          65.1399   94.0587   10.0124 C.ar    1  UNL1       -0.0040
     13 C          64.7952   92.7819   10.7201 C.ar    1  UNL1        0.0058
     14 C          65.3727   92.4956   12.0746 C.ar    1  UNL1        0.0729
     15 C          66.2949   93.4862   12.7213 C.ar    1  UNL1        0.1069
     16 C          66.6396   94.7630   12.0136 C.ar    1  UNL1        0.0168
     17 N          66.8724   93.1999   14.0758 N.ar    1  UNL1       -0.1477
     18 N          68.3016   92.8513   14.3692 N.ar    1  UNL1       -0.1447
     19 C          68.4347   92.6480   15.8493 C.ar    1  UNL1        0.1446
     20 C          67.0877   92.8709   16.4708 C.ar    1  UNL1        0.1446
     21 N          66.1222   93.2120   15.3746 N.ar    1  UNL1       -0.1447
     22 C          64.3386   88.6651   14.1977 C.3     1  UNL1        0.0510
     23 C          63.9356   87.4361   14.9574 C.ar    1  UNL1        0.0085
     24 C          64.0219   86.0886   14.3042 C.ar    1  UNL1        0.0172
     25 C          63.6189   84.8596   15.0639 C.ar    1  UNL1        0.0843
     26 C          63.1297   84.9781   16.4769 C.ar    1  UNL1        0.0215
     27 C          63.0434   86.3256   17.1301 C.ar    1  UNL1        0.0309
     28 C          63.4463   87.5546   16.3704 C.ar    1  UNL1        0.1363
     29 F          63.3600   88.9021   17.0237 F       1  UNL1       -0.2045
     30 N          63.7052   83.5120   14.4106 N.ar    1  UNL1       -0.2089
     31 C          64.3051   83.2204   13.0671 C.ar    1  UNL1        0.1245
     32 C          64.1775   81.7477   12.8122 C.ar    1  UNL1        0.1445
     33 N          63.4987   81.1292   13.9983 N.ar    1  UNL1       -0.1268
     34 N          63.2069   82.2196   14.9861 N.ar    1  UNL1       -0.0595
@<TRIPOS>BOND
     1    10    11    1
     2    11    12   ar
     3    12    13   ar
     4    13    14   ar
     5    14     1    1
     6     1     2    2
     7     1     3   am
     8     3     4    1
     9     4     5    1
    10     5     6    1
    11     5     7    1
    12     7     8    1
    13     8     9    1
    14     9    22    1
    15    22    23    1
    16    23    24   ar
    17    24    25   ar
    18    25    30    1
    19    30    31   ar
    20    31    32   ar
    21    32    33   ar
    22    33    34   ar
    23    25    26   ar
    24    26    27   ar
    25    27    28   ar
    26    28    29    1
    27    14    15   ar
    28    15    17    1
    29    17    18   ar
    30    18    19   ar
    31    19    20   ar
    32    20    21   ar
    33    15    16   ar
    34    16    11   ar
    35     9     3    1
    36    28    23   ar
    37    21    17   ar
    38    34    30   ar
@<TRIPOS>MOLECULE
*****
 34 38 0 0 0
SMALL
GASTEIGER

@<TRIPOS>ATOM
      1 C          63.3562   87.3149   12.9246 C.2     1  UNL1        0.2506
      2 O          63.3588   87.9901   11.5852 O.2     1  UNL1       -0.2699
      3 N          63.2530   88.1337   14.1771 N.am    1  UNL1       -0.2724
      4 C          63.2503   87.4585   15.5166 C.3     1  UNL1        0.1231
      5 C          63.1471   88.2774   16.7691 C.3     1  UNL1        0.1351
      6 C          63.1444   87.6021   18.1085 C.3     1  UNL1        0.0339
      7 O          63.0466   89.7715   16.6822 O.3     1  UNL1       -0.3527
      8 C          63.0493   90.4467   15.3428 C.3     1  UNL1        0.1621
      9 C          63.1525   89.6278   14.0902 C.3     1  UNL1        0.1097
     10 C          63.7581   81.3384   13.2722 C.3     1  UNL1        0.0311
     11 C          63.6576   82.8326   13.1853 C.ar    1  UNL1       -0.0203
     12 C          64.2903   83.6895   14.2414 C.ar    1  UNL1       -0.0040
     13 C          64.1898   85.1836   14.1545 C.ar    1  UNL1        0.0058
     14 C          63.4566   85.8208   13.0115 C.ar    1  UNL1        0.0729
     15 C          62.8240   84.9638   11.9554 C.ar    1  UNL1        0.1069
     16 C          62.9245   83.4697   12.0423 C.ar    1  UNL1        0.0168
     17 N          62.0908   85.6010   10.8123 N.ar    1  UNL1       -0.1477
     18 N          60.8250   86.3996   10.9124 N.ar    1  UNL1       -0.1447
     19 C          60.4466   86.8436    9.5305 C.ar    1  UNL1        0.1446
     20 C          61.4785   86.3194    8.5764 C.ar    1  UNL1        0.1446
     21 N          62.4947   85.5514    9.3686 N.ar    1  UNL1       -0.1447
     22 C          63.1552   90.3031   12.7508 C.3     1  UNL1        0.0510
     23 C          64.2744   91.2306   12.3807 C.ar    1  UNL1        0.0085
     24 C          65.3444   91.5518   13.3817 C.ar    1  UNL1        0.0172
     25 C          66.4636   92.4793   13.0116 C.ar    1  UNL1        0.0843
     26 C          66.5129   93.0857   11.6406 C.ar    1  UNL1        0.0215
     27 C          65.4429   92.7645   10.6396 C.ar    1  UNL1        0.0309
     28 C          64.3237   91.8370   11.0097 C.ar    1  UNL1        0.1363
     29 F          63.2537   91.5159   10.0086 F       1  UNL1       -0.2045
     30 N          67.5336   92.8004   14.0127 N.ar    1  UNL1       -0.2089
     31 C          67.3641   93.6356   15.2471 C.ar    1  UNL1        0.1245
     32 C          68.6866   93.6941   15.9524 C.ar    1  UNL1        0.1445
     33 N          69.6736   92.8952   15.1538 N.ar    1  UNL1       -0.1268
     34 N          68.9610   92.3429   13.9550 N.ar    1  UNL1       -0.0595
@<TRIPOS>BOND
     1    10    11    1
     2    11    12   ar
     3    12    13   ar
     4    13    14   ar
     5    14     1    1
     6     1     2    2
     7     1     3   am
     8     3     4    1
     9     4     5    1
    10     5     6    1
    11     5     7    1
    12     7     8    1
    13     8     9    1
    14     9    22    1
    15    22    23    1
    16    23    24   ar
    17    24    25   ar
    18    25    30    1
    19    30    31   ar
    20    31    32   ar
    21    32    33   ar
    22    33    34   ar
    23    25    26   ar
    24    26    27   ar
    25    27    28   ar
    26    28    29    1
    27    14    15   ar
    28    15    17    1
    29    17    18   ar
    30    18    19   ar
    31    19    20   ar
    32    20    21   ar
    33    15    16   ar
    34    16    11   ar
    35     9     3    1
    36    28    23   ar
    37    21    17   ar
    38    34    30   ar
