@<TRIPOS>MOLECULE
*****
 30 35 0 0 0
SMALL
GASTEIGER

@<TRIPOS>ATOM
      1 C          64.3590   89.3560   15.1615 C.3     1  UNL1        0.0493
      2 C          63.5401   89.2245   16.4113 C.3     1  UNL1        0.0238
      3 C          62.9806   87.8893   16.8043 C.3     1  UNL1        0.0730
      4 N          63.2401   86.6857   15.9475 N.3     1  UNL1       -0.2623
      5 C          64.0592   86.8174   14.6977 C.3     1  UNL1        0.0730
      6 C          64.6186   88.1525   14.3047 C.3     1  UNL1        0.0238
      7 C          65.7137   92.5602   13.4402 C.ar    1  UNL1        0.1224
      8 C          65.8449   92.9313   14.8876 C.ar    1  UNL1        0.0587
      9 S          65.3534   91.7761   15.7086 S.2     1  UNL1       -0.0701
     10 C          64.9184   90.6912   14.7686 C.ar    1  UNL1        0.0880
     11 N          65.1411   91.1758   13.3665 N.ar    1  UNL1       -0.2396
     12 C          67.4303   95.6285    8.0325 C.ar    1  UNL1        0.0002
     13 C          67.2040   96.8556    8.8649 C.ar    1  UNL1        0.0031
     14 C          66.7657   96.7226   10.2933 C.ar    1  UNL1        0.0375
     15 C          66.5537   95.3625   10.8892 C.ar    1  UNL1        0.1454
     16 O          66.1267   94.9218   12.2579 O.2     1  UNL1       -0.4520
     17 C          66.0891   93.4223   12.2714 C.ar    1  UNL1        0.1633
     18 C          66.4929   92.9362   10.9110 C.ar    1  UNL1        0.0421
     19 C          66.7801   94.1354   10.0567 C.ar    1  UNL1        0.0376
     20 C          67.2184   94.2684    8.6284 C.ar    1  UNL1        0.0031
     21 C          62.6807   85.3506   16.3405 C.3     1  UNL1        0.1978
     22 C          62.6823   84.2179   15.3571 C.2     1  UNL1        0.3718
     23 N          62.6937   82.7566   15.6953 N.2     1  UNL1        0.0124
     24 C          62.6912   81.9833   14.4100 C.2     1  UNL1        0.4184
     25 N          62.6990   80.5107   14.1247 N.2     1  UNL1       -0.0277
     26 C          62.6939   80.0215   12.7067 C.2     1  UNL1        0.2320
     27 C          62.6810   81.0049   11.5742 C.2     1  UNL1        0.0333
     28 C          62.6732   82.4774   11.8595 C.3     1  UNL1        0.1120
     29 C          62.6783   82.9666   13.2774 C.2     1  UNL1        0.2626
     30 N          62.6728   84.3477   13.8627 N.2     1  UNL1       -0.0332
@<TRIPOS>BOND
     1    12    13   ar
     2    13    14   ar
     3    14    15   ar
     4    15    16   ar
     5    16    17   ar
     6    17     7    1
     7     7     8   ar
     8     8     9   ar
     9     9    10   ar
    10    10     1    1
    11     1     2    1
    12     2     3    1
    13     3     4    1
    14     4    21    1
    15    21    22    1
    16    22    23    2
    17    23    24    1
    18    24    25    2
    19    25    26    1
    20    26    27    2
    21    27    28    1
    22    28    29    1
    23    29    30    2
    24     4     5    1
    25     5     6    1
    26    10    11   ar
    27    17    18   ar
    28    18    19   ar
    29    19    20   ar
    30    20    12   ar
    31    19    15   ar
    32    11     7   ar
    33     6     1    1
    34    30    22    1
    35    29    24    1
@<TRIPOS>MOLECULE
*****
 30 35 0 0 0
SMALL
GASTEIGER

@<TRIPOS>ATOM
      1 C          64.7538   90.1485   14.6210 C.3     1  UNL1        0.0493
      2 C          65.6858   90.8551   15.5601 C.3     1  UNL1        0.0238
      3 C          66.2548   92.1921   15.1874 C.3     1  UNL1        0.0730
      4 N          65.8917   92.8224   13.8755 N.3     1  UNL1       -0.2623
      5 C          64.9596   92.1156   12.9364 C.3     1  UNL1        0.0730
      6 C          64.3907   90.7787   13.3091 C.3     1  UNL1        0.0238
      7 C          63.4966   86.4864   14.8924 C.ar    1  UNL1        0.1224
      8 C          63.1220   87.0222   16.2424 C.ar    1  UNL1        0.0587
      9 S          63.5474   88.4593   16.3050 S.2     1  UNL1       -0.0701
     10 C          64.1848   88.8116   14.9938 C.ar    1  UNL1        0.0880
     11 N          64.1534   87.5922   14.1206 N.ar    1  UNL1       -0.2396
     12 C          62.9477   80.6396   12.2244 C.ar    1  UNL1        0.0002
     13 C          61.9941   80.4043   13.3581 C.ar    1  UNL1        0.0031
     14 C          61.7253   81.4960   14.3510 C.ar    1  UNL1        0.0375
     15 C          62.4101   82.8231   14.2102 C.ar    1  UNL1        0.1454
     16 O          62.3438   84.0785   15.0284 O.2     1  UNL1       -0.4520
     17 C          63.2564   85.0899   14.4004 C.ar    1  UNL1        0.1633
     18 C          63.8867   84.4594   13.1940 C.ar    1  UNL1        0.0421
     19 C          63.3636   83.0585   13.0765 C.ar    1  UNL1        0.0376
     20 C          63.6324   81.9667   12.0836 C.ar    1  UNL1        0.0031
     21 C          66.4607   94.1593   13.5027 C.3     1  UNL1        0.1978
     22 C          66.4333   94.6139   12.0736 C.2     1  UNL1        0.3718
     23 N          65.7004   95.8102   11.5427 N.2     1  UNL1        0.0124
     24 C          65.9482   95.8876   10.0654 C.2     1  UNL1        0.4184
     25 N          65.4815   96.8555    9.0188 N.2     1  UNL1       -0.0277
     26 C          65.9008   96.6750    7.5899 C.2     1  UNL1        0.2320
     27 C          66.7868   95.5266    7.2077 C.2     1  UNL1        0.0333
     28 C          67.2535   94.5587    8.2543 C.3     1  UNL1        0.1120
     29 C          66.8342   94.7392    9.6831 C.2     1  UNL1        0.2626
     30 N          67.1340   93.9520   10.9242 N.2     1  UNL1       -0.0332
@<TRIPOS>BOND
     1    12    13   ar
     2    13    14   ar
     3    14    15   ar
     4    15    16   ar
     5    16    17   ar
     6    17     7    1
     7     7     8   ar
     8     8     9   ar
     9     9    10   ar
    10    10     1    1
    11     1     2    1
    12     2     3    1
    13     3     4    1
    14     4    21    1
    15    21    22    1
    16    22    23    2
    17    23    24    1
    18    24    25    2
    19    25    26    1
    20    26    27    2
    21    27    28    1
    22    28    29    1
    23    29    30    2
    24     4     5    1
    25     5     6    1
    26    10    11   ar
    27    17    18   ar
    28    18    19   ar
    29    19    20   ar
    30    20    12   ar
    31    19    15   ar
    32    11     7   ar
    33     6     1    1
    34    30    22    1
    35    29    24    1
@<TRIPOS>MOLECULE
*****
 30 35 0 0 0
SMALL
GASTEIGER

@<TRIPOS>ATOM
      1 C          59.7355   89.6840    7.3727 C.3     1  UNL1        0.0493
      2 C          59.2273   88.2746    7.4451 C.3     1  UNL1        0.0238
      3 C          59.4259   87.4689    8.6947 C.3     1  UNL1        0.0730
      4 N          60.1328   88.0726    9.8719 N.3     1  UNL1       -0.2623
      5 C          60.6411   89.4821    9.7995 C.3     1  UNL1        0.0730
      6 C          60.4425   90.2877    8.5499 C.3     1  UNL1        0.0238
      7 C          59.9734   91.7483    4.0945 C.ar    1  UNL1        0.1224
      8 C          58.4889   91.7106    4.3061 C.ar    1  UNL1        0.0587
      9 S          58.2191   90.9327    5.5600 S.2     1  UNL1       -0.0701
     10 C          59.5369   90.4897    6.1232 C.ar    1  UNL1        0.0880
     11 N          60.6211   90.9938    5.2174 N.ar    1  UNL1       -0.2396
     12 C          63.6658   94.3473   -0.5116 C.ar    1  UNL1        0.0002
     13 C          62.3615   94.9062   -0.9976 C.ar    1  UNL1        0.0031
     14 C          61.0928   94.6020   -0.2574 C.ar    1  UNL1        0.0375
     15 C          61.1285   93.7389    0.9689 C.ar    1  UNL1        0.1454
     16 O          60.0485   93.2706    1.8985 O.2     1  UNL1       -0.4520
     17 C          60.6853   92.4223    2.9591 C.ar    1  UNL1        0.1633
     18 C          62.1590   92.3662    2.6849 C.ar    1  UNL1        0.0421
     19 C          62.4329   93.1800    1.4549 C.ar    1  UNL1        0.0376
     20 C          63.7015   93.4842    0.7146 C.ar    1  UNL1        0.0031
     21 C          60.3315   87.2669   11.1214 C.3     1  UNL1        0.1978
     22 C          61.3477   86.1640   11.1490 C.2     1  UNL1        0.3718
     23 N          61.8849   85.4905   12.3770 N.2     1  UNL1        0.0124
     24 C          62.8744   84.4512   11.9403 C.2     1  UNL1        0.4184
     25 N          63.7173   83.4804   12.7130 N.2     1  UNL1       -0.0277
     26 C          64.6345   82.5408   11.9879 C.2     1  UNL1        0.2320
     27 C          64.7088   82.5719   10.4902 C.2     1  UNL1        0.0333
     28 C          63.8659   83.5426    9.7174 C.3     1  UNL1        0.1120
     29 C          62.9487   84.4822   10.4424 C.2     1  UNL1        0.2626
     30 N          62.0052   85.5408    9.9534 N.2     1  UNL1       -0.0332
@<TRIPOS>BOND
     1    12    13   ar
     2    13    14   ar
     3    14    15   ar
     4    15    16   ar
     5    16    17   ar
     6    17     7    1
     7     7     8   ar
     8     8     9   ar
     9     9    10   ar
    10    10     1    1
    11     1     2    1
    12     2     3    1
    13     3     4    1
    14     4    21    1
    15    21    22    1
    16    22    23    2
    17    23    24    1
    18    24    25    2
    19    25    26    1
    20    26    27    2
    21    27    28    1
    22    28    29    1
    23    29    30    2
    24     4     5    1
    25     5     6    1
    26    10    11   ar
    27    17    18   ar
    28    18    19   ar
    29    19    20   ar
    30    20    12   ar
    31    19    15   ar
    32    11     7   ar
    33     6     1    1
    34    30    22    1
    35    29    24    1
