@<TRIPOS>MOLECULE
*****
 40 45 0 0 0
SMALL
GASTEIGER

@<TRIPOS>ATOM
      1 N          65.3512   92.3592   12.2398 N.3     1  UNL1       -0.2641
      2 C          66.3656   92.6894   11.1853 C.3     1  UNL1        0.0981
      3 C          67.3485   91.6483   10.7380 C.3     1  UNL1        0.0224
      4 C          68.3629   91.9785    9.6835 C.3     1  UNL1        0.0065
      5 C          68.3945   93.3497    9.0764 C.3     1  UNL1        0.0277
      6 C          67.4116   94.3908    9.5237 C.ar    1  UNL1       -0.0073
      7 C          67.4431   95.7621    8.9166 C.ar    1  UNL1       -0.0015
      8 C          66.4603   96.8032    9.3639 C.ar    1  UNL1        0.0203
      9 C          65.4459   96.4730   10.4184 C.ar    1  UNL1        0.0985
     10 N          65.4143   95.1017   11.0255 N.ar    1  UNL1       -0.2471
     11 C          66.3972   94.0606   10.5782 C.ar    1  UNL1        0.0695
     12 C          63.8993   92.2556   11.8775 C.3     1  UNL1        0.0994
     13 C          62.2201   88.3474   10.4090 C.ar    1  UNL1       -0.0064
     14 C          62.7261   88.4648   11.8162 C.ar    1  UNL1       -0.0032
     15 C          63.2858   89.7675   12.3058 C.ar    1  UNL1       -0.0032
     16 C          63.3396   90.9529   11.3880 C.ar    1  UNL1       -0.0062
     17 C          62.8337   90.8354    9.9808 C.ar    1  UNL1       -0.0032
     18 C          62.2739   89.5327    9.4913 C.ar    1  UNL1       -0.0032
     19 C          61.6604   87.0447    9.9195 C.3     1  UNL1        0.0959
     20 N          61.5852   85.8660   10.8441 N.3     1  UNL1       -0.2900
     21 H          61.5150   86.2385   11.7911 H       1  UNL1        0.1239
     22 C          62.6909   84.8524   10.8585 C.3     1  UNL1        0.0974
     23 C          62.8680   81.2454   12.5041 C.ar    1  UNL1        0.0204
     24 C          62.7107   81.5881   13.9559 C.ar    1  UNL1        0.0989
     25 N          62.5468   83.0190   14.3753 N.ar    1  UNL1       -0.2426
     26 C          62.5402   84.1071   13.3428 C.ar    1  UNL1        0.0959
     27 C          62.6975   83.7643   11.8910 C.ar    1  UNL1        0.0128
     28 C          62.8614   82.3335   11.4716 C.ar    1  UNL1        0.0002
     29 C          65.7887   92.1326   13.6566 C.3     1  UNL1        0.0888
     30 C          65.0455   91.1609   14.5247 C.3     1  UNL1        0.0748
     31 C          65.1942   89.6858   14.2969 C.3     1  UNL1        0.0432
     32 C          64.4510   88.7142   15.1651 C.ar    1  UNL1       -0.0234
     33 C          64.5997   87.2391   14.9373 C.ar    1  UNL1       -0.0045
     34 C          63.8565   86.2675   15.8054 C.ar    1  UNL1       -0.0003
     35 C          62.9647   86.7710   16.9014 C.ar    1  UNL1       -0.0003
     36 C          62.8160   88.2461   17.1292 C.ar    1  UNL1       -0.0032
     37 C          63.5592   89.2177   16.2610 C.ar    1  UNL1       -0.0103
     38 C          63.4105   90.6929   16.4888 C.3     1  UNL1        0.0953
     39 N          64.1536   91.6645   15.6207 N.3     1  UNL1       -0.2934
     40 H          64.7372   92.2264   16.2404 H       1  UNL1        0.1236
@<TRIPOS>BOND
     1    23    24   ar
     2    24    25   ar
     3    25    26   ar
     4    26    27   ar
     5    27    22    1
     6    22    20    1
     7    20    19    1
     8    19    13    1
     9    13    14   ar
    10    14    15   ar
    11    15    16   ar
    12    16    12    1
    13    12     1    1
    14     1    29    1
    15    30    29    1
    16    30    31    1
    17    31    32    1
    18    32    33   ar
    19    33    34   ar
    20    34    35   ar
    21    35    36   ar
    22    36    37   ar
    23    37    38    1
    24    38    39    1
    25     2     1    1
    26     2     3    1
    27     3     4    1
    28     4     5    1
    29     5     6    1
    30     6     7   ar
    31     7     8   ar
    32     8     9   ar
    33     9    10   ar
    34    10    11   ar
    35    16    17   ar
    36    17    18   ar
    37    27    28   ar
    38    28    23   ar
    39    18    13   ar
    40    39    30    1
    41    11     2    1
    42    37    32   ar
    43    11     6   ar
    44    20    21    1
    45    39    40    1
@<TRIPOS>MOLECULE
*****
 40 45 0 0 0
SMALL
GASTEIGER

@<TRIPOS>ATOM
      1 N          63.5522   91.1535   13.3099 N.3     1  UNL1       -0.2641
      2 C          64.7684   91.6383   12.5779 C.3     1  UNL1        0.0981
      3 C          64.6899   91.9406   11.1109 C.3     1  UNL1        0.0224
      4 C          65.9062   92.4254   10.3789 C.3     1  UNL1        0.0065
      5 C          67.2008   92.6079   11.1140 C.3     1  UNL1        0.0277
      6 C          67.2793   92.3056   12.5811 C.ar    1  UNL1       -0.0073
      7 C          68.5740   92.4881   13.3163 C.ar    1  UNL1       -0.0015
      8 C          68.6525   92.1858   14.7834 C.ar    1  UNL1        0.0203
      9 C          67.4363   91.7010   15.5154 C.ar    1  UNL1        0.0985
     10 N          66.1416   91.5185   14.7803 N.ar    1  UNL1       -0.2471
     11 C          66.0631   91.8208   13.3131 C.ar    1  UNL1        0.0695
     12 C          63.6390   90.8189   14.7695 C.3     1  UNL1        0.0994
     13 C          63.7394   86.5181   16.0899 C.ar    1  UNL1       -0.0064
     14 C          64.4133   86.9267   14.8135 C.ar    1  UNL1       -0.0032
     15 C          64.3798   88.3603   14.3734 C.ar    1  UNL1       -0.0032
     16 C          63.6725   89.3853   15.2096 C.ar    1  UNL1       -0.0062
     17 C          62.9987   88.9766   16.4859 C.ar    1  UNL1       -0.0032
     18 C          63.0321   87.5430   16.9260 C.ar    1  UNL1       -0.0032
     19 C          63.7729   85.0845   16.5300 C.3     1  UNL1        0.0959
     20 N          64.0936   84.0035   15.5407 N.3     1  UNL1       -0.2900
     21 H          64.7404   84.4071   14.8630 H       1  UNL1        0.1239
     22 C          62.9925   83.3548   14.7554 C.3     1  UNL1        0.0974
     23 C          64.2779   83.3237   11.0008 C.ar    1  UNL1        0.0204
     24 C          63.7372   82.0072   10.5270 C.ar    1  UNL1        0.0989
     25 N          62.9482   81.1400   11.4626 N.ar    1  UNL1       -0.2426
     26 C          62.7000   81.5892   12.8721 C.ar    1  UNL1        0.0959
     27 C          63.2407   82.9056   13.3459 C.ar    1  UNL1        0.0128
     28 C          64.0297   83.7729   12.4103 C.ar    1  UNL1        0.0002
     29 C          62.2492   91.0033   12.5823 C.3     1  UNL1        0.0888
     30 C          62.0023   89.7956   11.7274 C.3     1  UNL1        0.0748
     31 C          61.0770   89.8863   10.5504 C.3     1  UNL1        0.0432
     32 C          60.8302   88.6787    9.6955 C.ar    1  UNL1       -0.0234
     33 C          59.9049   88.7694    8.5185 C.ar    1  UNL1       -0.0045
     34 C          59.6581   87.5618    7.6637 C.ar    1  UNL1       -0.0003
     35 C          60.3366   86.2634    7.9859 C.ar    1  UNL1       -0.0003
     36 C          61.2619   86.1727    9.1630 C.ar    1  UNL1       -0.0032
     37 C          61.5087   87.3803   10.0178 C.ar    1  UNL1       -0.0103
     38 C          62.4341   87.2896   11.1949 C.3     1  UNL1        0.0953
     39 N          62.6808   88.4972   12.0497 N.3     1  UNL1       -0.2934
     40 H          63.6848   88.6755   12.0247 H       1  UNL1        0.1236
@<TRIPOS>BOND
     1    23    24   ar
     2    24    25   ar
     3    25    26   ar
     4    26    27   ar
     5    27    22    1
     6    22    20    1
     7    20    19    1
     8    19    13    1
     9    13    14   ar
    10    14    15   ar
    11    15    16   ar
    12    16    12    1
    13    12     1    1
    14     1    29    1
    15    30    29    1
    16    30    31    1
    17    31    32    1
    18    32    33   ar
    19    33    34   ar
    20    34    35   ar
    21    35    36   ar
    22    36    37   ar
    23    37    38    1
    24    38    39    1
    25     2     1    1
    26     2     3    1
    27     3     4    1
    28     4     5    1
    29     5     6    1
    30     6     7   ar
    31     7     8   ar
    32     8     9   ar
    33     9    10   ar
    34    10    11   ar
    35    16    17   ar
    36    17    18   ar
    37    27    28   ar
    38    28    23   ar
    39    18    13   ar
    40    39    30    1
    41    11     2    1
    42    37    32   ar
    43    11     6   ar
    44    20    21    1
    45    39    40    1
@<TRIPOS>MOLECULE
*****
 40 45 0 0 0
SMALL
GASTEIGER

@<TRIPOS>ATOM
      1 N          63.8316   90.6342   14.3633 N.3     1  UNL1       -0.2641
      2 C          65.2201   91.1436   14.1133 C.3     1  UNL1        0.0981
      3 C          66.2701   91.0117   15.1763 C.3     1  UNL1        0.0224
      4 C          67.6587   91.5211   14.9262 C.3     1  UNL1        0.0065
      5 C          67.9971   92.1624   13.6132 C.3     1  UNL1        0.0277
      6 C          66.9471   92.2943   12.5502 C.ar    1  UNL1       -0.0073
      7 C          67.2856   92.9356   11.2370 C.ar    1  UNL1       -0.0015
      8 C          66.2355   93.0674   10.1741 C.ar    1  UNL1        0.0203
      9 C          64.8470   92.5580   10.4241 C.ar    1  UNL1        0.0985
     10 N          64.5085   91.9168   11.7372 N.ar    1  UNL1       -0.2471
     11 C          65.5586   91.7849   12.8002 C.ar    1  UNL1        0.0695
     12 C          63.5200   89.8979   15.6325 C.3     1  UNL1        0.0994
     13 C          63.9547   85.4222   15.8020 C.ar    1  UNL1       -0.0064
     14 C          64.6657   86.2050   14.7381 C.ar    1  UNL1       -0.0032
     15 C          64.5208   87.6969   14.6816 C.ar    1  UNL1       -0.0032
     16 C          63.6649   88.4060   15.6890 C.ar    1  UNL1       -0.0062
     17 C          62.9540   87.6232   16.7528 C.ar    1  UNL1       -0.0032
     18 C          63.0989   86.1313   16.8093 C.ar    1  UNL1       -0.0032
     19 C          64.0996   83.9303   15.8585 C.3     1  UNL1        0.0959
     20 N          62.9000   83.0521   15.6586 N.3     1  UNL1       -0.2900
     21 H          63.2346   82.0887   15.6736 H       1  UNL1        0.1239
     22 C          62.0599   83.1996   14.4247 C.3     1  UNL1        0.0974
     23 C          63.7911   83.5264   10.8686 C.ar    1  UNL1        0.0204
     24 C          63.7550   82.1007   10.4037 C.ar    1  UNL1        0.0989
     25 N          63.1539   81.0413   11.2792 N.ar    1  UNL1       -0.2426
     26 C          62.5888   81.4076   12.6195 C.ar    1  UNL1        0.0959
     27 C          62.6249   82.8333   13.0844 C.ar    1  UNL1        0.0128
     28 C          63.2260   83.8927   12.2090 C.ar    1  UNL1        0.0002
     29 C          62.7546   90.8610   13.3442 C.3     1  UNL1        0.0888
     30 C          62.4203   89.7849   12.3541 C.3     1  UNL1        0.0748
     31 C          61.4263   90.0522   11.2630 C.3     1  UNL1        0.0432
     32 C          61.0919   88.9761   10.2729 C.ar    1  UNL1       -0.0234
     33 C          60.0979   89.2434    9.1818 C.ar    1  UNL1       -0.0045
     34 C          59.7636   88.1673    8.1917 C.ar    1  UNL1       -0.0003
     35 C          60.4234   86.8240    8.2927 C.ar    1  UNL1       -0.0003
     36 C          61.4174   86.5567    9.3837 C.ar    1  UNL1       -0.0032
     37 C          61.7517   87.6328   10.3738 C.ar    1  UNL1       -0.0103
     38 C          62.7458   87.3656   11.4649 C.3     1  UNL1        0.0953
     39 N          63.0800   88.4416   12.4550 N.3     1  UNL1       -0.2934
     40 H          64.0852   88.6015   12.3880 H       1  UNL1        0.1236
@<TRIPOS>BOND
     1    23    24   ar
     2    24    25   ar
     3    25    26   ar
     4    26    27   ar
     5    27    22    1
     6    22    20    1
     7    20    19    1
     8    19    13    1
     9    13    14   ar
    10    14    15   ar
    11    15    16   ar
    12    16    12    1
    13    12     1    1
    14     1    29    1
    15    30    29    1
    16    30    31    1
    17    31    32    1
    18    32    33   ar
    19    33    34   ar
    20    34    35   ar
    21    35    36   ar
    22    36    37   ar
    23    37    38    1
    24    38    39    1
    25     2     1    1
    26     2     3    1
    27     3     4    1
    28     4     5    1
    29     5     6    1
    30     6     7   ar
    31     7     8   ar
    32     8     9   ar
    33     9    10   ar
    34    10    11   ar
    35    16    17   ar
    36    17    18   ar
    37    27    28   ar
    38    28    23   ar
    39    18    13   ar
    40    39    30    1
    41    11     2    1
    42    37    32   ar
    43    11     6   ar
    44    20    21    1
    45    39    40    1
@<TRIPOS>MOLECULE
*****
 40 45 0 0 0
SMALL
GASTEIGER

@<TRIPOS>ATOM
      1 N          61.9532   87.5400   11.2084 N.3     1  UNL1       -0.2641
      2 C          61.0597   87.2495   10.0391 C.3     1  UNL1        0.0981
      3 C          59.6908   87.8590    9.9717 C.3     1  UNL1        0.0224
      4 C          58.7972   87.5686    8.8024 C.3     1  UNL1        0.0065
      5 C          59.2725   86.6686    7.7006 C.3     1  UNL1        0.0277
      6 C          60.6414   86.0591    7.7680 C.ar    1  UNL1       -0.0073
      7 C          61.1168   85.1591    6.6661 C.ar    1  UNL1       -0.0015
      8 C          62.4857   84.5496    6.7335 C.ar    1  UNL1        0.0203
      9 C          63.3793   84.8400    7.9028 C.ar    1  UNL1        0.0985
     10 N          62.9040   85.7400    9.0046 N.ar    1  UNL1       -0.2471
     11 C          61.5350   86.3496    8.9373 C.ar    1  UNL1        0.0695
     12 C          61.7050   88.7497   12.0597 C.3     1  UNL1        0.0994
     13 C          65.1078   91.5030   13.1038 C.ar    1  UNL1       -0.0064
     14 C          64.4255   91.6250   11.7735 C.ar    1  UNL1       -0.0032
     15 C          63.2912   90.7073   11.4255 C.ar    1  UNL1       -0.0032
     16 C          62.8393   89.6675   12.4077 C.ar    1  UNL1       -0.0062
     17 C          63.5216   89.5455   13.7379 C.ar    1  UNL1       -0.0032
     18 C          64.6559   90.4633   14.0859 C.ar    1  UNL1       -0.0032
     19 C          66.2421   92.4208   13.4518 C.3     1  UNL1        0.0959
     20 N          66.8710   93.2723   12.3890 N.3     1  UNL1       -0.2900
     21 H          67.8341   93.4417   12.6791 H       1  UNL1        0.1239
     22 C          66.2792   94.6085   12.0509 C.3     1  UNL1        0.0974
     23 C          67.3493   94.9898    8.2483 C.ar    1  UNL1        0.0204
     24 C          66.5361   96.1834    7.8433 C.ar    1  UNL1        0.0989
     25 N          65.6372   96.8520    8.8409 N.ar    1  UNL1       -0.2426
     26 C          65.5516   96.3271   10.2434 C.ar    1  UNL1        0.0959
     27 C          66.3648   95.1335   10.6484 C.ar    1  UNL1        0.0128
     28 C          67.2636   94.4649    9.6509 C.ar    1  UNL1        0.0002
     29 C          63.0950   86.6207   11.5263 C.3     1  UNL1        0.0888
     30 C          62.8391   85.3249   12.2374 C.3     1  UNL1        0.0748
     31 C          63.0009   84.0243   11.5078 C.3     1  UNL1        0.0432
     32 C          62.7449   82.7286   12.2189 C.ar    1  UNL1       -0.0234
     33 C          62.9067   81.4280   11.4894 C.ar    1  UNL1       -0.0045
     34 C          62.6507   80.1323   12.2005 C.ar    1  UNL1       -0.0003
     35 C          62.2330   80.1373   13.6411 C.ar    1  UNL1       -0.0003
     36 C          62.0712   81.4378   14.3707 C.ar    1  UNL1       -0.0032
     37 C          62.3272   82.7335   13.6596 C.ar    1  UNL1       -0.0103
     38 C          62.1654   84.0342   14.3891 C.3     1  UNL1        0.0953
     39 N          62.4213   85.3298   13.6780 N.3     1  UNL1       -0.2934
     40 H          63.1571   85.8098   14.1963 H       1  UNL1        0.1236
@<TRIPOS>BOND
     1    23    24   ar
     2    24    25   ar
     3    25    26   ar
     4    26    27   ar
     5    27    22    1
     6    22    20    1
     7    20    19    1
     8    19    13    1
     9    13    14   ar
    10    14    15   ar
    11    15    16   ar
    12    16    12    1
    13    12     1    1
    14     1    29    1
    15    30    29    1
    16    30    31    1
    17    31    32    1
    18    32    33   ar
    19    33    34   ar
    20    34    35   ar
    21    35    36   ar
    22    36    37   ar
    23    37    38    1
    24    38    39    1
    25     2     1    1
    26     2     3    1
    27     3     4    1
    28     4     5    1
    29     5     6    1
    30     6     7   ar
    31     7     8   ar
    32     8     9   ar
    33     9    10   ar
    34    10    11   ar
    35    16    17   ar
    36    17    18   ar
    37    27    28   ar
    38    28    23   ar
    39    18    13   ar
    40    39    30    1
    41    11     2    1
    42    37    32   ar
    43    11     6   ar
    44    20    21    1
    45    39    40    1
@<TRIPOS>MOLECULE
*****
 40 45 0 0 0
SMALL
GASTEIGER

@<TRIPOS>ATOM
      1 N          61.7539   87.0765   11.5679 N.3     1  UNL1       -0.2641
      2 C          62.4228   85.8897   10.9401 C.3     1  UNL1        0.0981
      3 C          62.6972   85.8765    9.4655 C.3     1  UNL1        0.0224
      4 C          63.3661   84.6897    8.8377 C.3     1  UNL1        0.0065
      5 C          63.7605   83.5161    9.6845 C.3     1  UNL1        0.0277
      6 C          63.4860   83.5293   11.1591 C.ar    1  UNL1       -0.0073
      7 C          63.8804   82.3557   12.0059 C.ar    1  UNL1       -0.0015
      8 C          63.6059   82.3688   13.4805 C.ar    1  UNL1        0.0203
      9 C          62.9371   83.5556   14.1083 C.ar    1  UNL1        0.0985
     10 N          62.5427   84.7292   13.2615 N.ar    1  UNL1       -0.2471
     11 C          62.8172   84.7161   11.7869 C.ar    1  UNL1        0.0695
     12 C          60.3368   87.4146   11.2109 C.3     1  UNL1        0.0994
     13 C          59.4062   89.2906    7.2279 C.ar    1  UNL1       -0.0064
     14 C          59.8659   90.1464    8.3709 C.ar    1  UNL1       -0.0032
     15 C          60.1761   89.5210    9.6985 C.ar    1  UNL1       -0.0032
     16 C          60.0266   88.0399    9.8832 C.ar    1  UNL1       -0.0062
     17 C          59.5669   87.1842    8.7403 C.ar    1  UNL1       -0.0032
     18 C          59.2567   87.8095    7.4126 C.ar    1  UNL1       -0.0032
     19 C          59.0960   89.9159    5.9002 C.3     1  UNL1        0.0959
     20 N          59.0528   91.4093    5.7663 N.3     1  UNL1       -0.2900
     21 H          58.2068   91.7232    6.2419 H       1  UNL1        0.1239
     22 C          59.0441   92.0404    4.4056 C.3     1  UNL1        0.0974
     23 C          62.8271   91.5845    3.2963 C.ar    1  UNL1        0.0204
     24 C          62.8913   92.5126    2.1196 C.ar    1  UNL1        0.0989
     25 N          61.6731   93.2833    1.7050 N.ar    1  UNL1       -0.2426
     26 C          60.3907   93.1259    2.4669 C.ar    1  UNL1        0.0959
     27 C          60.3265   92.1978    3.6436 C.ar    1  UNL1        0.0128
     28 C          61.5446   91.4271    4.0583 C.ar    1  UNL1        0.0002
     29 C          62.5021   87.9251   12.5527 C.3     1  UNL1        0.0888
     30 C          63.1406   89.2067   12.1056 C.3     1  UNL1        0.0748
     31 C          64.0285   89.9695   13.0436 C.3     1  UNL1        0.0432
     32 C          64.6670   91.2511   12.5964 C.ar    1  UNL1       -0.0234
     33 C          65.5548   92.0139   13.5344 C.ar    1  UNL1       -0.0045
     34 C          66.1933   93.2954   13.0873 C.ar    1  UNL1       -0.0003
     35 C          65.9439   93.8142   11.7021 C.ar    1  UNL1       -0.0003
     36 C          65.0561   93.0514   10.7641 C.ar    1  UNL1       -0.0032
     37 C          64.4176   91.7699   11.2113 C.ar    1  UNL1       -0.0103
     38 C          63.5297   91.0070   10.2732 C.3     1  UNL1        0.0953
     39 N          62.8913   89.7255   10.7204 N.3     1  UNL1       -0.2934
     40 H          63.2023   89.0004   10.0740 H       1  UNL1        0.1236
@<TRIPOS>BOND
     1    23    24   ar
     2    24    25   ar
     3    25    26   ar
     4    26    27   ar
     5    27    22    1
     6    22    20    1
     7    20    19    1
     8    19    13    1
     9    13    14   ar
    10    14    15   ar
    11    15    16   ar
    12    16    12    1
    13    12     1    1
    14     1    29    1
    15    30    29    1
    16    30    31    1
    17    31    32    1
    18    32    33   ar
    19    33    34   ar
    20    34    35   ar
    21    35    36   ar
    22    36    37   ar
    23    37    38    1
    24    38    39    1
    25     2     1    1
    26     2     3    1
    27     3     4    1
    28     4     5    1
    29     5     6    1
    30     6     7   ar
    31     7     8   ar
    32     8     9   ar
    33     9    10   ar
    34    10    11   ar
    35    16    17   ar
    36    17    18   ar
    37    27    28   ar
    38    28    23   ar
    39    18    13   ar
    40    39    30    1
    41    11     2    1
    42    37    32   ar
    43    11     6   ar
    44    20    21    1
    45    39    40    1
@<TRIPOS>MOLECULE
*****
 40 45 0 0 0
SMALL
GASTEIGER

@<TRIPOS>ATOM
      1 N          63.8432   89.9841   13.7361 N.3     1  UNL1       -0.2641
      2 C          64.5319   91.1551   13.1001 C.3     1  UNL1        0.0981
      3 C          64.2654   91.4920   11.6630 C.3     1  UNL1        0.0224
      4 C          64.9541   92.6630   11.0270 C.3     1  UNL1        0.0065
      5 C          65.9092   93.4971   11.8282 C.3     1  UNL1        0.0277
      6 C          66.1758   93.1602   13.2653 C.ar    1  UNL1       -0.0073
      7 C          67.1310   93.9942   14.0665 C.ar    1  UNL1       -0.0015
      8 C          67.3975   93.6573   15.5037 C.ar    1  UNL1        0.0203
      9 C          66.7088   92.4863   16.1396 C.ar    1  UNL1        0.0985
     10 N          65.7536   91.6522   15.3385 N.ar    1  UNL1       -0.2471
     11 C          65.4871   91.9892   13.9013 C.ar    1  UNL1        0.0695
     12 C          62.3655   89.7965   13.5596 C.3     1  UNL1        0.0994
     13 C          60.6317   89.3476    9.4314 C.ar    1  UNL1       -0.0064
     14 C          59.8025   89.9388   10.5329 C.ar    1  UNL1       -0.0032
     15 C          60.3805   90.0884   11.9089 C.ar    1  UNL1       -0.0032
     16 C          61.7876   89.6469   12.1835 C.ar    1  UNL1       -0.0062
     17 C          62.6166   89.0558   11.0821 C.ar    1  UNL1       -0.0032
     18 C          62.0386   88.9062    9.7060 C.ar    1  UNL1       -0.0032
     19 C          60.0537   89.1980    8.0553 C.3     1  UNL1        0.0959
     20 N          58.9882   88.1744    7.7966 N.3     1  UNL1       -0.2900
     21 H          58.1159   88.5592    8.1592 H       1  UNL1        0.1239
     22 C          59.1215   86.7928    8.3654 C.3     1  UNL1        0.0974
     23 C          62.5495   85.2797    9.6726 C.ar    1  UNL1        0.0204
     24 C          63.1305   84.7491    8.3955 C.ar    1  UNL1        0.0989
     25 N          62.3750   84.8998    7.1084 N.ar    1  UNL1       -0.2426
     26 C          61.0387   85.5810    7.0983 C.ar    1  UNL1        0.0959
     27 C          60.4578   86.1116    8.3754 C.ar    1  UNL1        0.0128
     28 C          61.2131   85.9609    9.6625 C.ar    1  UNL1        0.0002
     29 C          64.6322   89.0006   14.5486 C.3     1  UNL1        0.0888
     30 C          64.1072   87.6118   14.7621 C.3     1  UNL1        0.0748
     31 C          64.1086   86.6273   13.6304 C.3     1  UNL1        0.0432
     32 C          63.5836   85.2384   13.8439 C.ar    1  UNL1       -0.0234
     33 C          63.5850   84.2539   12.7122 C.ar    1  UNL1       -0.0045
     34 C          63.0600   82.8651   12.9257 C.ar    1  UNL1       -0.0003
     35 C          62.5335   82.4609   14.2708 C.ar    1  UNL1       -0.0003
     36 C          62.5320   83.4454   15.4025 C.ar    1  UNL1       -0.0032
     37 C          63.0571   84.8342   15.1890 C.ar    1  UNL1       -0.0103
     38 C          63.0556   85.8188   16.3207 C.3     1  UNL1        0.0953
     39 N          63.5806   87.2075   16.1072 N.3     1  UNL1       -0.2934
     40 H          64.3416   87.3402   16.7733 H       1  UNL1        0.1236
@<TRIPOS>BOND
     1    23    24   ar
     2    24    25   ar
     3    25    26   ar
     4    26    27   ar
     5    27    22    1
     6    22    20    1
     7    20    19    1
     8    19    13    1
     9    13    14   ar
    10    14    15   ar
    11    15    16   ar
    12    16    12    1
    13    12     1    1
    14     1    29    1
    15    30    29    1
    16    30    31    1
    17    31    32    1
    18    32    33   ar
    19    33    34   ar
    20    34    35   ar
    21    35    36   ar
    22    36    37   ar
    23    37    38    1
    24    38    39    1
    25     2     1    1
    26     2     3    1
    27     3     4    1
    28     4     5    1
    29     5     6    1
    30     6     7   ar
    31     7     8   ar
    32     8     9   ar
    33     9    10   ar
    34    10    11   ar
    35    16    17   ar
    36    17    18   ar
    37    27    28   ar
    38    28    23   ar
    39    18    13   ar
    40    39    30    1
    41    11     2    1
    42    37    32   ar
    43    11     6   ar
    44    20    21    1
    45    39    40    1
@<TRIPOS>MOLECULE
*****
 40 45 0 0 0
SMALL
GASTEIGER

@<TRIPOS>ATOM
      1 N          63.0819   85.1996   12.8309 N.3     1  UNL1       -0.2641
      2 C          63.3034   83.9651   12.0081 C.3     1  UNL1        0.0981
      3 C          63.9708   84.0663   10.6686 C.3     1  UNL1        0.0224
      4 C          64.1924   82.8318    9.8459 C.3     1  UNL1        0.0065
      5 C          63.7465   81.4961   10.3626 C.3     1  UNL1        0.0277
      6 C          63.0790   81.3949   11.7020 C.ar    1  UNL1       -0.0073
      7 C          62.6331   80.0592   12.2188 C.ar    1  UNL1       -0.0015
      8 C          61.9656   79.9580   13.5583 C.ar    1  UNL1        0.0203
      9 C          61.7441   81.1925   14.3810 C.ar    1  UNL1        0.0985
     10 N          62.1900   82.5282   13.8643 N.ar    1  UNL1       -0.2471
     11 C          62.8575   82.6294   12.5248 C.ar    1  UNL1        0.0695
     12 C          64.2033   85.7661   13.6502 C.3     1  UNL1        0.0994
     13 C          63.5608   89.5129   16.0583 C.ar    1  UNL1       -0.0064
     14 C          63.3347   88.1696   16.6864 C.ar    1  UNL1       -0.0032
     15 C          63.5489   86.9207   15.8838 C.ar    1  UNL1       -0.0032
     16 C          63.9892   87.0150   14.4529 C.ar    1  UNL1       -0.0062
     17 C          64.2153   88.3583   13.8248 C.ar    1  UNL1       -0.0032
     18 C          64.0011   89.6072   14.6275 C.ar    1  UNL1       -0.0032
     19 C          63.3467   90.7618   16.8609 C.3     1  UNL1        0.0959
     20 N          63.8682   92.0753   16.3579 N.3     1  UNL1       -0.2900
     21 H          63.8778   92.0178   15.3396 H       1  UNL1        0.1239
     22 C          65.2267   92.5531   16.7775 C.3     1  UNL1        0.0974
     23 C          68.9243   92.4636   15.3388 C.ar    1  UNL1        0.0204
     24 C          68.6538   92.4313   13.8638 C.ar    1  UNL1        0.0989
     25 N          67.2409   92.4396   13.3600 N.ar    1  UNL1       -0.2426
     26 C          66.0986   92.4802   14.3312 C.ar    1  UNL1        0.0959
     27 C          66.3691   92.5125   15.8063 C.ar    1  UNL1        0.0128
     28 C          67.7819   92.5042   16.3101 C.ar    1  UNL1        0.0002
     29 C          61.7389   85.8676   12.8343 C.3     1  UNL1        0.0888
     30 C          61.3427   86.7612   11.6964 C.3     1  UNL1        0.0748
     31 C          60.7466   86.1720   10.4525 C.3     1  UNL1        0.0432
     32 C          60.3505   87.0655    9.3146 C.ar    1  UNL1       -0.0234
     33 C          59.7544   86.4763    8.0707 C.ar    1  UNL1       -0.0045
     34 C          59.3583   87.3698    6.9329 C.ar    1  UNL1       -0.0003
     35 C          59.5583   88.8527    7.0390 C.ar    1  UNL1       -0.0003
     36 C          60.1544   89.4419    8.2830 C.ar    1  UNL1       -0.0032
     37 C          60.5505   88.5483    9.4207 C.ar    1  UNL1       -0.0103
     38 C          61.1467   89.1376   10.6648 C.3     1  UNL1        0.0953
     39 N          61.5428   88.2440   11.8025 N.3     1  UNL1       -0.2934
     40 H          61.0151   88.5547   12.6183 H       1  UNL1        0.1236
@<TRIPOS>BOND
     1    23    24   ar
     2    24    25   ar
     3    25    26   ar
     4    26    27   ar
     5    27    22    1
     6    22    20    1
     7    20    19    1
     8    19    13    1
     9    13    14   ar
    10    14    15   ar
    11    15    16   ar
    12    16    12    1
    13    12     1    1
    14     1    29    1
    15    30    29    1
    16    30    31    1
    17    31    32    1
    18    32    33   ar
    19    33    34   ar
    20    34    35   ar
    21    35    36   ar
    22    36    37   ar
    23    37    38    1
    24    38    39    1
    25     2     1    1
    26     2     3    1
    27     3     4    1
    28     4     5    1
    29     5     6    1
    30     6     7   ar
    31     7     8   ar
    32     8     9   ar
    33     9    10   ar
    34    10    11   ar
    35    16    17   ar
    36    17    18   ar
    37    27    28   ar
    38    28    23   ar
    39    18    13   ar
    40    39    30    1
    41    11     2    1
    42    37    32   ar
    43    11     6   ar
    44    20    21    1
    45    39    40    1
@<TRIPOS>MOLECULE
*****
 40 45 0 0 0
SMALL
GASTEIGER

@<TRIPOS>ATOM
      1 N          61.8983   87.3787   10.8703 N.3     1  UNL1       -0.2641
      2 C          60.9899   87.0587    9.7203 C.3     1  UNL1        0.0981
      3 C          59.6051   87.6333    9.6760 C.3     1  UNL1        0.0224
      4 C          58.6967   87.3134    8.5260 C.3     1  UNL1        0.0065
      5 C          59.1732   86.4188    7.4203 C.3     1  UNL1        0.0277
      6 C          60.5581   85.8442    7.4645 C.ar    1  UNL1       -0.0073
      7 C          61.0346   84.9496    6.3588 C.ar    1  UNL1       -0.0015
      8 C          62.4194   84.3750    6.4031 C.ar    1  UNL1        0.0203
      9 C          63.3278   84.6949    7.5531 C.ar    1  UNL1        0.0985
     10 N          62.8513   85.5895    8.6588 N.ar    1  UNL1       -0.2471
     11 C          61.4664   86.1642    8.6145 C.ar    1  UNL1        0.0695
     12 C          61.6599   88.6090   11.6945 C.3     1  UNL1        0.0994
     13 C          64.4781   92.1037   11.3878 C.ar    1  UNL1       -0.0064
     14 C          63.7557   91.6136   10.1680 C.ar    1  UNL1       -0.0032
     15 C          62.8163   90.4486   10.2703 C.ar    1  UNL1       -0.0032
     16 C          62.5993   89.7739   11.5923 C.ar    1  UNL1       -0.0062
     17 C          63.3217   90.2641   12.8120 C.ar    1  UNL1       -0.0032
     18 C          64.2612   91.4290   12.7098 C.ar    1  UNL1       -0.0032
     19 C          65.4176   93.2687   11.2856 C.3     1  UNL1        0.0959
     20 N          66.9000   93.0415   11.3153 N.3     1  UNL1       -0.2900
     21 H          67.1829   92.8185   10.3611 H       1  UNL1        0.1239
     22 C          67.4779   91.9757   12.1986 C.3     1  UNL1        0.0974
     23 C          66.5987   92.6432   16.0106 C.ar    1  UNL1        0.0204
     24 C          67.9722   92.7304   16.6072 C.ar    1  UNL1        0.0989
     25 N          69.1810   92.5659   15.7342 N.ar    1  UNL1       -0.2426
     26 C          69.0162   92.3144   14.2647 C.ar    1  UNL1        0.0959
     27 C          67.6427   92.2272   13.6681 C.ar    1  UNL1        0.0128
     28 C          66.4340   92.3916   14.5410 C.ar    1  UNL1        0.0002
     29 C          63.0450   86.4683   11.1960 C.3     1  UNL1        0.0888
     30 C          62.8086   85.2202   11.9939 C.3     1  UNL1        0.0748
     31 C          62.9531   83.8761   11.3440 C.3     1  UNL1        0.0432
     32 C          62.7167   82.6280   12.1419 C.ar    1  UNL1       -0.0234
     33 C          62.8612   81.2838   11.4920 C.ar    1  UNL1       -0.0045
     34 C          62.6248   80.0358   12.2899 C.ar    1  UNL1       -0.0003
     35 C          62.2439   80.1320   13.7375 C.ar    1  UNL1       -0.0003
     36 C          62.0995   81.4761   14.3873 C.ar    1  UNL1       -0.0032
     37 C          62.3359   82.7241   13.5895 C.ar    1  UNL1       -0.0103
     38 C          62.1914   84.0684   14.2393 C.3     1  UNL1        0.0953
     39 N          62.4278   85.3164   13.4415 N.3     1  UNL1       -0.2934
     40 H          63.1761   85.8277   13.9095 H       1  UNL1        0.1236
@<TRIPOS>BOND
     1    23    24   ar
     2    24    25   ar
     3    25    26   ar
     4    26    27   ar
     5    27    22    1
     6    22    20    1
     7    20    19    1
     8    19    13    1
     9    13    14   ar
    10    14    15   ar
    11    15    16   ar
    12    16    12    1
    13    12     1    1
    14     1    29    1
    15    30    29    1
    16    30    31    1
    17    31    32    1
    18    32    33   ar
    19    33    34   ar
    20    34    35   ar
    21    35    36   ar
    22    36    37   ar
    23    37    38    1
    24    38    39    1
    25     2     1    1
    26     2     3    1
    27     3     4    1
    28     4     5    1
    29     5     6    1
    30     6     7   ar
    31     7     8   ar
    32     8     9   ar
    33     9    10   ar
    34    10    11   ar
    35    16    17   ar
    36    17    18   ar
    37    27    28   ar
    38    28    23   ar
    39    18    13   ar
    40    39    30    1
    41    11     2    1
    42    37    32   ar
    43    11     6   ar
    44    20    21    1
    45    39    40    1
@<TRIPOS>MOLECULE
*****
 40 45 0 0 0
SMALL
GASTEIGER

@<TRIPOS>ATOM
      1 N          63.4648   85.2117   13.8671 N.3     1  UNL1       -0.2641
      2 C          62.8764   83.8398   13.7198 C.3     1  UNL1        0.0981
      3 C          61.9675   83.2956   14.7818 C.3     1  UNL1        0.0224
      4 C          61.3790   81.9238   14.6345 C.3     1  UNL1        0.0065
      5 C          61.6994   81.0961   13.4253 C.3     1  UNL1        0.0277
      6 C          62.6083   81.6403   12.3634 C.ar    1  UNL1       -0.0073
      7 C          62.9288   80.8126   11.1541 C.ar    1  UNL1       -0.0015
      8 C          63.8376   81.3568   10.0921 C.ar    1  UNL1        0.0203
      9 C          64.4261   82.7287   10.2394 C.ar    1  UNL1        0.0985
     10 N          64.1057   83.5563   11.4486 N.ar    1  UNL1       -0.2471
     11 C          63.1968   83.0122   12.5106 C.ar    1  UNL1        0.0695
     12 C          63.7364   85.7686   15.2331 C.3     1  UNL1        0.0994
     13 C          63.8119   90.2223   15.8731 C.ar    1  UNL1       -0.0064
     14 C          63.0877   89.3372   16.8439 C.ar    1  UNL1       -0.0032
     15 C          63.0625   87.8527   16.6305 C.ar    1  UNL1       -0.0032
     16 C          63.7616   87.2532   15.4464 C.ar    1  UNL1       -0.0062
     17 C          64.4857   88.1382   14.4757 C.ar    1  UNL1       -0.0032
     18 C          64.5109   89.6227   14.6891 C.ar    1  UNL1       -0.0032
     19 C          63.8371   91.7068   16.0864 C.3     1  UNL1        0.0959
     20 N          65.1474   92.4355   16.1339 N.3     1  UNL1       -0.2900
     21 H          64.9317   93.4318   16.0979 H       1  UNL1        0.1239
     22 C          66.1866   92.1793   15.0830 C.3     1  UNL1        0.0974
     23 C          65.1523   92.5969   11.2744 C.ar    1  UNL1        0.0204
     24 C          65.7172   93.9537   10.9744 C.ar    1  UNL1        0.0989
     25 N          66.4387   94.7190   12.0440 N.ar    1  UNL1       -0.2426
     26 C          66.5951   94.1275   13.4135 C.ar    1  UNL1        0.0959
     27 C          66.0302   92.7707   13.7135 C.ar    1  UNL1        0.0128
     28 C          65.3088   92.0055   12.6440 C.ar    1  UNL1        0.0002
     29 C          63.7818   86.0266   12.6484 C.3     1  UNL1        0.0888
     30 C          62.6739   86.5070   11.7584 C.3     1  UNL1        0.0748
     31 C          62.3844   85.7950   10.4704 C.3     1  UNL1        0.0432
     32 C          61.2765   86.2753    9.5804 C.ar    1  UNL1       -0.0234
     33 C          60.9870   85.5633    8.2923 C.ar    1  UNL1       -0.0045
     34 C          59.8792   86.0436    7.4024 C.ar    1  UNL1       -0.0003
     35 C          59.0609   87.2361    7.8006 C.ar    1  UNL1       -0.0003
     36 C          59.3505   87.9481    9.0886 C.ar    1  UNL1       -0.0032
     37 C          60.4583   87.4678    9.9785 C.ar    1  UNL1       -0.0103
     38 C          60.7478   88.1798   11.2666 C.3     1  UNL1        0.0953
     39 N          61.8556   87.6995   12.1565 N.3     1  UNL1       -0.2934
     40 H          61.4340   87.4792   13.0588 H       1  UNL1        0.1236
@<TRIPOS>BOND
     1    23    24   ar
     2    24    25   ar
     3    25    26   ar
     4    26    27   ar
     5    27    22    1
     6    22    20    1
     7    20    19    1
     8    19    13    1
     9    13    14   ar
    10    14    15   ar
    11    15    16   ar
    12    16    12    1
    13    12     1    1
    14     1    29    1
    15    30    29    1
    16    30    31    1
    17    31    32    1
    18    32    33   ar
    19    33    34   ar
    20    34    35   ar
    21    35    36   ar
    22    36    37   ar
    23    37    38    1
    24    38    39    1
    25     2     1    1
    26     2     3    1
    27     3     4    1
    28     4     5    1
    29     5     6    1
    30     6     7   ar
    31     7     8   ar
    32     8     9   ar
    33     9    10   ar
    34    10    11   ar
    35    16    17   ar
    36    17    18   ar
    37    27    28   ar
    38    28    23   ar
    39    18    13   ar
    40    39    30    1
    41    11     2    1
    42    37    32   ar
    43    11     6   ar
    44    20    21    1
    45    39    40    1
