@<TRIPOS>MOLECULE
*****
 33 37 0 0 0
SMALL
GASTEIGER

@<TRIPOS>ATOM
      1 C          62.0008   85.4555   11.2278 C.3     1  UNL1        0.0325
      2 C          62.8494   85.9199   12.3741 C.ar    1  UNL1       -0.0058
      3 C          63.4136   84.9225   13.3420 C.ar    1  UNL1       -0.0003
      4 C          64.2622   85.3869   14.4883 C.ar    1  UNL1       -0.0000
      5 C          64.5466   86.8488   14.6670 C.ar    1  UNL1        0.0045
      6 C          63.9823   87.8464   13.6992 C.ar    1  UNL1        0.0518
      7 C          64.2666   89.3083   13.8777 C.ar    1  UNL1        0.1704
      8 O          65.0631   90.0578   14.9043 O.2     1  UNL1       -0.4368
      9 C          64.9911   91.5185   14.5710 C.ar    1  UNL1        0.2217
     10 N          64.1501   91.6718   13.3384 N.ar    1  UNL1       -0.2060
     11 C          63.7024   90.3058   12.9099 C.ar    1  UNL1        0.1744
     12 C          62.8538   89.8413   11.7635 C.ar    1  UNL1        0.2816
     13 O          62.2896   90.8388   10.7957 O.2     1  UNL1       -0.2652
     14 N          62.5695   88.3794   11.5850 N.ar    1  UNL1       -0.2963
     15 C          63.1337   87.3820   12.5527 C.ar    1  UNL1        0.0614
     16 C          63.1293   83.4605   13.1634 C.ar    1  UNL1        0.0295
     17 C          62.0647   82.7975   13.9863 C.ar    1  UNL1        0.0331
     18 C          61.7805   81.3355   13.8076 C.ar    1  UNL1        0.1530
     19 F          60.7159   80.6725   14.6305 F       1  UNL1       -0.2029
     20 C          62.5607   80.5366   12.8062 C.ar    1  UNL1        0.0716
     21 N          62.2764   79.0747   12.6277 N.pl3   1  UNL1       -0.3552
     22 C          63.6253   81.1997   11.9834 C.ar    1  UNL1        0.0460
     23 C          63.9096   82.6616   12.1620 C.ar    1  UNL1        0.1414
     24 F          64.9742   83.3246   11.3391 F       1  UNL1       -0.2041
     25 H          61.5777   78.6395   13.1678 H       1  UNL1        0.1424
     26 H          62.7885   78.5503   11.9704 H       1  UNL1        0.1424
     27 C          65.6451   92.6307   15.3359 C.3     1  UNL1        0.1518
     28 N          65.2647   92.8833   16.7647 N.3     1  UNL1       -0.3134
     29 H          64.2941   93.1939   16.8083 H       1  UNL1        0.1193
     30 H          65.8705   93.6049   17.1554 H       1  UNL1        0.1193
     31 C          61.7209   87.9150   10.4385 C.3     1  UNL1        0.0885
     32 C          60.3682   87.7016    9.8265 C.3     1  UNL1        0.0246
     33 C          61.6040   87.3239    9.0648 C.3     1  UNL1        0.0246
@<TRIPOS>BOND
     1     1     2    1
     2     2     3   ar
     3     3    16    1
     4    16    17   ar
     5    17    18   ar
     6    18    19    1
     7    18    20   ar
     8    20    21    1
     9    20    22   ar
    10    22    23   ar
    11    23    24    1
    12     3     4   ar
    13     4     5   ar
    14     5     6   ar
    15     6     7   ar
    16     7     8   ar
    17     8     9   ar
    18     9    27    1
    19    27    28    1
    20     9    10   ar
    21    10    11   ar
    22    11    12   ar
    23    12    13    2
    24    12    14   ar
    25    14    31    1
    26    31    32    1
    27    32    33    1
    28    14    15   ar
    29    15     2   ar
    30    23    16   ar
    31    15     6   ar
    32    11     7   ar
    33    33    31    1
    34    21    25    1
    35    21    26    1
    36    28    29    1
    37    28    30    1
@<TRIPOS>MOLECULE
*****
 33 37 0 0 0
SMALL
GASTEIGER

@<TRIPOS>ATOM
      1 C          62.0195   85.5698   11.2984 C.3     1  UNL1        0.0325
      2 C          62.8788   86.0428   12.4332 C.ar    1  UNL1       -0.0058
      3 C          63.4446   85.0535   13.4085 C.ar    1  UNL1       -0.0003
      4 C          64.3039   85.5265   14.5433 C.ar    1  UNL1       -0.0000
      5 C          64.5976   86.9888   14.7029 C.ar    1  UNL1        0.0045
      6 C          64.0318   87.9782   13.7277 C.ar    1  UNL1        0.0518
      7 C          64.3254   89.4405   13.8872 C.ar    1  UNL1        0.1704
      8 O          65.1333   90.1974   14.8993 O.2     1  UNL1       -0.4368
      9 C          65.0668   91.6545   14.5495 C.ar    1  UNL1        0.2217
     10 N          64.2178   91.7982   13.3212 N.ar    1  UNL1       -0.2060
     11 C          63.7596   90.4298   12.9119 C.ar    1  UNL1        0.1744
     12 C          62.9003   89.9568   11.7771 C.ar    1  UNL1        0.2816
     13 O          62.3345   90.9461   10.8018 O.2     1  UNL1       -0.2652
     14 N          62.6067   88.4945   11.6176 N.ar    1  UNL1       -0.2963
     15 C          63.1724   87.5052   12.5928 C.ar    1  UNL1        0.0614
     16 C          63.1510   83.5912   13.2490 C.ar    1  UNL1        0.0295
     17 C          63.3446   82.9283   11.9175 C.ar    1  UNL1        0.0331
     18 C          63.0510   81.4659   11.7580 C.ar    1  UNL1        0.1530
     19 F          63.2445   80.8030   10.4265 F       1  UNL1       -0.2029
     20 C          62.5639   80.6665   12.9301 C.ar    1  UNL1        0.0716
     21 N          62.2703   79.2042   12.7706 N.pl3   1  UNL1       -0.3552
     22 C          62.3704   81.3296   14.2617 C.ar    1  UNL1        0.0460
     23 C          62.6640   82.7919   14.4211 C.ar    1  UNL1        0.1414
     24 F          62.4704   83.4548   15.7527 F       1  UNL1       -0.2041
     25 H          62.3973   78.7691   11.8966 H       1  UNL1        0.1424
     26 H          61.9506   78.6796   13.5399 H       1  UNL1        0.1424
     27 C          65.7324   92.7719   15.2968 C.3     1  UNL1        0.1518
     28 N          66.4528   93.8520   14.5455 N.3     1  UNL1       -0.3134
     29 H          67.2652   93.4544   14.0739 H       1  UNL1        0.1193
     30 H          66.7582   94.5742   15.1979 H       1  UNL1        0.1193
     31 C          61.7473   88.0215   10.4827 C.3     1  UNL1        0.0885
     32 C          61.6130   87.3623    9.1420 C.3     1  UNL1        0.0246
     33 C          60.3930   87.8616    9.8579 C.3     1  UNL1        0.0246
@<TRIPOS>BOND
     1     1     2    1
     2     2     3   ar
     3     3    16    1
     4    16    17   ar
     5    17    18   ar
     6    18    19    1
     7    18    20   ar
     8    20    21    1
     9    20    22   ar
    10    22    23   ar
    11    23    24    1
    12     3     4   ar
    13     4     5   ar
    14     5     6   ar
    15     6     7   ar
    16     7     8   ar
    17     8     9   ar
    18     9    27    1
    19    27    28    1
    20     9    10   ar
    21    10    11   ar
    22    11    12   ar
    23    12    13    2
    24    12    14   ar
    25    14    31    1
    26    31    32    1
    27    32    33    1
    28    14    15   ar
    29    15     2   ar
    30    23    16   ar
    31    15     6   ar
    32    11     7   ar
    33    33    31    1
    34    21    25    1
    35    21    26    1
    36    28    29    1
    37    28    30    1
@<TRIPOS>MOLECULE
*****
 33 37 0 0 0
SMALL
GASTEIGER

@<TRIPOS>ATOM
      1 C          64.9427   88.2411   14.6109 C.3     1  UNL1        0.0325
      2 C          64.2149   88.8948   13.4739 C.ar    1  UNL1       -0.0058
      3 C          64.3717   90.3666   13.2302 C.ar    1  UNL1       -0.0003
      4 C          63.6438   91.0203   12.0932 C.ar    1  UNL1       -0.0000
      5 C          62.7592   90.2023   11.1997 C.ar    1  UNL1        0.0045
      6 C          62.6023   88.7305   11.4433 C.ar    1  UNL1        0.0518
      7 C          61.7177   87.9124   10.5499 C.ar    1  UNL1        0.1704
      8 O          60.8807   88.2770    9.3597 O.2     1  UNL1       -0.4368
      9 C          60.2067   87.0306    8.8678 C.ar    1  UNL1        0.2217
     10 N          60.6271   85.8956    9.7539 N.ar    1  UNL1       -0.2060
     11 C          61.5609   86.4407   10.7936 C.ar    1  UNL1        0.1744
     12 C          62.2888   85.7870   11.9306 C.ar    1  UNL1        0.2816
     13 O          62.1320   84.3152   12.1743 O.2     1  UNL1       -0.2652
     14 N          63.1734   86.6050   12.8240 N.ar    1  UNL1       -0.2963
     15 C          63.3302   88.0767   12.5804 C.ar    1  UNL1        0.0614
     16 C          65.2563   91.1846   14.1236 C.ar    1  UNL1        0.0295
     17 C          66.6402   91.5517   13.6764 C.ar    1  UNL1        0.0331
     18 C          67.5248   92.3699   14.5699 C.ar    1  UNL1        0.1530
     19 F          68.9087   92.7370   14.1227 F       1  UNL1       -0.2029
     20 C          67.0255   92.8208   15.9105 C.ar    1  UNL1        0.0716
     21 N          67.9101   93.6389   16.8039 N.pl3   1  UNL1       -0.3552
     22 C          65.6415   92.4537   16.3577 C.ar    1  UNL1        0.0460
     23 C          64.7570   91.6356   15.4643 C.ar    1  UNL1        0.1414
     24 F          63.3731   91.2685   15.9115 F       1  UNL1       -0.2041
     25 H          68.8184   93.8798   16.5104 H       1  UNL1        0.1424
     26 H          67.5824   93.9349   17.6839 H       1  UNL1        0.1424
     27 C          59.2757   86.9357    7.6955 C.3     1  UNL1        0.1518
     28 N          58.6152   88.1715    7.1603 N.3     1  UNL1       -0.3134
     29 H          57.9721   88.5432    7.8594 H       1  UNL1        0.1193
     30 H          58.0986   87.9406    6.3117 H       1  UNL1        0.1193
     31 C          63.9013   85.9513   13.9611 C.3     1  UNL1        0.0885
     32 C          63.9885   85.5991   15.4166 C.3     1  UNL1        0.0246
     33 C          65.0748   85.1710   14.4749 C.3     1  UNL1        0.0246
@<TRIPOS>BOND
     1     1     2    1
     2     2     3   ar
     3     3    16    1
     4    16    17   ar
     5    17    18   ar
     6    18    19    1
     7    18    20   ar
     8    20    21    1
     9    20    22   ar
    10    22    23   ar
    11    23    24    1
    12     3     4   ar
    13     4     5   ar
    14     5     6   ar
    15     6     7   ar
    16     7     8   ar
    17     8     9   ar
    18     9    27    1
    19    27    28    1
    20     9    10   ar
    21    10    11   ar
    22    11    12   ar
    23    12    13    2
    24    12    14   ar
    25    14    31    1
    26    31    32    1
    27    32    33    1
    28    14    15   ar
    29    15     2   ar
    30    23    16   ar
    31    15     6   ar
    32    11     7   ar
    33    33    31    1
    34    21    25    1
    35    21    26    1
    36    28    29    1
    37    28    30    1
