@<TRIPOS>MOLECULE
*****
 26 29 0 0 0
SMALL
GASTEIGER

@<TRIPOS>ATOM
      1 C          63.0436   90.4792   13.6971 C.3     1  UNL1        0.2068
      2 O          63.7422   88.0619   13.0500 O.2     1  UNL1       -0.2739
      3 C          62.9153   89.2871   12.7955 C.2     1  UNL1        0.2419
      4 N          61.9601   89.3205   11.6394 N.am    1  UNL1       -0.2581
      5 C          61.0723   90.4692   11.2621 C.3     1  UNL1        0.1029
      6 C          60.2885   90.0696   10.0472 C.3     1  UNL1        0.0503
      7 C          60.6919   88.6740    9.6736 C.ar    1  UNL1        0.0038
      8 C          60.2519   87.7650    8.5646 C.ar    1  UNL1        0.0549
      9 CL         59.2188   88.2280    7.5805 Cl      1  UNL1       -0.0825
     10 C          60.8451   86.3930    8.4396 C.ar    1  UNL1        0.0112
     11 C          61.8782   85.9300    9.4236 C.ar    1  UNL1        0.0021
     12 C          62.3181   86.8390   10.5327 C.ar    1  UNL1        0.0146
     13 C          61.7250   88.2110   10.6577 C.ar    1  UNL1        0.0507
     14 C          64.3054   91.2902   13.6931 C.2     1  UNL1        0.3580
     15 N          64.8814   91.7748   12.3956 N.2     1  UNL1       -0.0039
     16 C          66.1432   92.5858   12.3916 C.2     1  UNL1        0.3159
     17 C          66.8290   92.9122   13.6851 C.3     1  UNL1        0.2333
     18 C          66.2531   92.4275   14.9826 C.2     1  UNL1        0.3644
     19 O          66.9390   92.7539   16.2761 O.2     1  UNL1       -0.2422
     20 N          64.9912   91.6165   14.9865 N.am    1  UNL1        0.0289
     21 N          66.7192   93.0705   11.0942 N.pl3   1  UNL1       -0.1888
     22 C          67.7170   92.2285   10.3556 C.3     1  UNL1        0.2343
     23 C          68.2930   92.7132    9.0582 C.3     1  UNL1        0.1929
     24 O          67.8712   94.0397    8.4993 O.3     1  UNL1       -0.3449
     25 C          66.8733   94.8817    9.2380 C.3     1  UNL1        0.1929
     26 C          66.2973   94.3971   10.5354 C.3     1  UNL1        0.2343
@<TRIPOS>BOND
     1     2     3    2
     2     3     1    1
     3     1    14    1
     4    14    15    1
     5    15    16    2
     6    16    21    1
     7    21    22    1
     8    22    23    1
     9    23    24    1
    10    24    25    1
    11    25    26    1
    12    16    17    1
    13    17    18    1
    14    18    19    2
    15    18    20    1
    16     3     4   am
    17     4     5    1
    18     5     6    1
    19     6     7    1
    20     7     8   ar
    21     8     9    1
    22     8    10   ar
    23    10    11   ar
    24    11    12   ar
    25    12    13   ar
    26    20    14    2
    27    13     4    1
    28    26    21    1
    29    13     7   ar
@<TRIPOS>MOLECULE
*****
 26 29 0 0 0
SMALL
GASTEIGER

@<TRIPOS>ATOM
      1 C          61.6721   89.2212   11.2161 C.3     1  UNL1        0.2068
      2 O          63.0850   91.0126    9.9733 O.2     1  UNL1       -0.2739
      3 C          62.7444   90.2702   11.2313 C.2     1  UNL1        0.2419
      4 N          63.4759   90.5766   12.5045 N.am    1  UNL1       -0.2581
      5 C          63.2459   89.9200   13.8334 C.3     1  UNL1        0.1029
      6 C          64.1937   90.5311   14.8225 C.3     1  UNL1        0.0503
      7 C          65.0094   91.5653   14.1049 C.ar    1  UNL1        0.0038
      8 C          66.0988   92.4851   14.5709 C.ar    1  UNL1        0.0549
      9 CL         66.5424   92.4569   16.0035 Cl      1  UNL1       -0.0825
     10 C          66.7445   93.4330   13.6043 C.ar    1  UNL1        0.0112
     11 C          66.3009   93.4612   12.1717 C.ar    1  UNL1        0.0021
     12 C          65.2115   92.5414   11.7057 C.ar    1  UNL1        0.0146
     13 C          64.5657   91.5935   12.6723 C.ar    1  UNL1        0.0507
     14 C          62.0223   87.7952   10.9098 C.2     1  UNL1        0.3580
     15 N          62.3693   86.8523   12.0236 N.2     1  UNL1       -0.0039
     16 C          62.7194   85.4262   11.7173 C.2     1  UNL1        0.3159
     17 C          62.7226   84.9432   10.2972 C.3     1  UNL1        0.2333
     18 C          62.3757   85.8861    9.1835 C.2     1  UNL1        0.3644
     19 O          62.3789   85.4030    7.7633 O.2     1  UNL1       -0.2422
     20 N          62.0255   87.3122    9.4898 N.am    1  UNL1        0.0289
     21 N          63.0664   84.4833   12.8311 N.pl3   1  UNL1       -0.1888
     22 C          62.7493   83.0228   12.7034 C.3     1  UNL1        0.2343
     23 C          63.0962   82.0798   13.8172 C.3     1  UNL1        0.1929
     24 O          63.7603   82.5974   15.0586 O.3     1  UNL1       -0.3449
     25 C          64.0775   84.0580   15.1862 C.3     1  UNL1        0.1929
     26 C          63.7305   85.0010   14.0725 C.3     1  UNL1        0.2343
@<TRIPOS>BOND
     1     2     3    2
     2     3     1    1
     3     1    14    1
     4    14    15    1
     5    15    16    2
     6    16    21    1
     7    21    22    1
     8    22    23    1
     9    23    24    1
    10    24    25    1
    11    25    26    1
    12    16    17    1
    13    17    18    1
    14    18    19    2
    15    18    20    1
    16     3     4   am
    17     4     5    1
    18     5     6    1
    19     6     7    1
    20     7     8   ar
    21     8     9    1
    22     8    10   ar
    23    10    11   ar
    24    11    12   ar
    25    12    13   ar
    26    20    14    2
    27    13     4    1
    28    26    21    1
    29    13     7   ar
@<TRIPOS>MOLECULE
*****
 26 29 0 0 0
SMALL
GASTEIGER

@<TRIPOS>ATOM
      1 C          61.9691   88.7603   11.3696 C.3     1  UNL1        0.2068
      2 O          63.1332   88.9375   13.6855 O.2     1  UNL1       -0.2739
      3 C          62.9187   89.4604   12.2961 C.2     1  UNL1        0.2419
      4 N          63.6536   90.6833   11.8331 N.am    1  UNL1       -0.2581
      5 C          63.5418   91.3194   10.4793 C.3     1  UNL1        0.1029
      6 C          64.4485   92.5140   10.4522 C.3     1  UNL1        0.0503
      7 C          65.1206   92.6163   11.7893 C.ar    1  UNL1        0.0038
      8 C          66.1164   93.5936   12.3400 C.ar    1  UNL1        0.0549
      9 CL         66.6077   94.7250   11.4865 Cl      1  UNL1       -0.0825
     10 C          66.6210   93.4393   13.7441 C.ar    1  UNL1        0.0112
     11 C          66.1297   92.3079   14.5976 C.ar    1  UNL1        0.0021
     12 C          65.1338   91.3306   14.0469 C.ar    1  UNL1        0.0146
     13 C          64.6293   91.4849   12.6428 C.ar    1  UNL1        0.0507
     14 C          62.2364   87.3449   10.9508 C.2     1  UNL1        0.3580
     15 N          62.3273   86.2615   11.9843 N.2     1  UNL1       -0.0039
     16 C          62.5946   84.8462   11.5655 C.2     1  UNL1        0.3159
     17 C          62.7709   84.5143   10.1134 C.3     1  UNL1        0.2333
     18 C          62.6800   85.5977    9.0800 C.2     1  UNL1        0.3644
     19 O          62.8563   85.2657    7.6278 O.2     1  UNL1       -0.2422
     20 N          62.4127   87.0131    9.4987 N.am    1  UNL1        0.0289
     21 N          62.6855   83.7627   12.5990 N.pl3   1  UNL1       -0.1888
     22 C          62.6968   84.1159   14.0567 C.3     1  UNL1        0.2343
     23 C          62.7877   83.0325   15.0902 C.3     1  UNL1        0.1929
     24 O          62.8673   81.5959   14.6658 O.3     1  UNL1       -0.3449
     25 C          62.8560   81.2428   13.2079 C.3     1  UNL1        0.1929
     26 C          62.7651   82.3262   12.1745 C.3     1  UNL1        0.2343
@<TRIPOS>BOND
     1     2     3    2
     2     3     1    1
     3     1    14    1
     4    14    15    1
     5    15    16    2
     6    16    21    1
     7    21    22    1
     8    22    23    1
     9    23    24    1
    10    24    25    1
    11    25    26    1
    12    16    17    1
    13    17    18    1
    14    18    19    2
    15    18    20    1
    16     3     4   am
    17     4     5    1
    18     5     6    1
    19     6     7    1
    20     7     8   ar
    21     8     9    1
    22     8    10   ar
    23    10    11   ar
    24    11    12   ar
    25    12    13   ar
    26    20    14    2
    27    13     4    1
    28    26    21    1
    29    13     7   ar
@<TRIPOS>MOLECULE
*****
 26 29 0 0 0
SMALL
GASTEIGER

@<TRIPOS>ATOM
      1 C          64.4215   86.5015   14.5253 C.3     1  UNL1        0.2068
      2 O          62.7021   85.0806   15.8575 O.2     1  UNL1       -0.2739
      3 C          63.6041   85.2522   14.6714 C.2     1  UNL1        0.2419
      4 N          63.6887   84.1746   13.6314 N.am    1  UNL1       -0.2581
      5 C          64.5415   84.2049   12.3978 C.3     1  UNL1        0.1029
      6 C          64.3152   82.9266   11.6464 C.3     1  UNL1        0.0503
      7 C          63.3225   82.1063   12.4155 C.ar    1  UNL1        0.0038
      8 C          62.7211   80.7566   12.1573 C.ar    1  UNL1        0.0549
      9 CL         63.1083   79.9853   10.9305 Cl      1  UNL1       -0.0825
     10 C          61.7325   80.1783   13.1259 C.ar    1  UNL1        0.0112
     11 C          61.3453   80.9496   14.3527 C.ar    1  UNL1        0.0021
     12 C          61.9467   82.2993   14.6109 C.ar    1  UNL1        0.0146
     13 C          62.9352   82.8776   13.6423 C.ar    1  UNL1        0.0507
     14 C          63.9118   87.6378   13.6892 C.2     1  UNL1        0.3580
     15 N          63.0701   87.3599   12.4792 N.2     1  UNL1       -0.0039
     16 C          62.5604   88.4962   11.6431 C.2     1  UNL1        0.3159
     17 C          62.8925   89.9103   12.0171 C.3     1  UNL1        0.2333
     18 C          63.7343   90.1882   13.2272 C.2     1  UNL1        0.3644
     19 O          64.0664   91.6024   13.6012 O.2     1  UNL1       -0.2422
     20 N          64.2440   89.0519   14.0633 N.am    1  UNL1        0.0289
     21 N          61.7187   88.2184   10.4331 N.pl3   1  UNL1       -0.1888
     22 C          60.9433   89.3285    9.7879 C.3     1  UNL1        0.2343
     23 C          60.1015   89.0507    8.5778 C.3     1  UNL1        0.1929
     24 O          60.0352   87.6627    8.0130 O.3     1  UNL1       -0.3449
     25 C          60.8106   86.5525    8.6582 C.3     1  UNL1        0.1929
     26 C          61.6524   86.8303    9.8683 C.3     1  UNL1        0.2343
@<TRIPOS>BOND
     1     2     3    2
     2     3     1    1
     3     1    14    1
     4    14    15    1
     5    15    16    2
     6    16    21    1
     7    21    22    1
     8    22    23    1
     9    23    24    1
    10    24    25    1
    11    25    26    1
    12    16    17    1
    13    17    18    1
    14    18    19    2
    15    18    20    1
    16     3     4   am
    17     4     5    1
    18     5     6    1
    19     6     7    1
    20     7     8   ar
    21     8     9    1
    22     8    10   ar
    23    10    11   ar
    24    11    12   ar
    25    12    13   ar
    26    20    14    2
    27    13     4    1
    28    26    21    1
    29    13     7   ar
@<TRIPOS>MOLECULE
*****
 26 29 0 0 0
SMALL
GASTEIGER

@<TRIPOS>ATOM
      1 C          63.5523   90.5859   13.9281 C.3     1  UNL1        0.2068
      2 O          62.3988   89.6608   11.7919 O.2     1  UNL1       -0.2739
      3 C          63.1665   89.4258   13.0588 C.2     1  UNL1        0.2419
      4 N          63.5486   88.0309   13.4566 N.am    1  UNL1       -0.2581
      5 C          64.3120   87.6431   14.6882 C.3     1  UNL1        0.1029
      6 C          64.4695   86.1514   14.6853 C.3     1  UNL1        0.0503
      7 C          63.8034   85.6173   13.4519 C.ar    1  UNL1        0.0038
      8 C          63.6417   84.2233   12.9222 C.ar    1  UNL1        0.0549
      9 CL         64.2108   83.0617   13.6816 Cl      1  UNL1       -0.0825
     10 C          62.9108   83.9909   11.6332 C.ar    1  UNL1        0.0112
     11 C          62.3417   85.1526   10.8738 C.ar    1  UNL1        0.0021
     12 C          62.5034   86.5466   11.4035 C.ar    1  UNL1        0.0146
     13 C          63.2343   86.7789   12.6925 C.ar    1  UNL1        0.0507
     14 C          64.9009   91.2240   13.7723 C.2     1  UNL1        0.3580
     15 N          65.2806   91.8669   12.4714 N.2     1  UNL1       -0.0039
     16 C          66.6291   92.5050   12.3155 C.2     1  UNL1        0.3159
     17 C          67.5979   92.5002   13.4607 C.3     1  UNL1        0.2333
     18 C          67.2182   91.8572   14.7616 C.2     1  UNL1        0.3644
     19 O          68.1871   91.8524   15.9068 O.2     1  UNL1       -0.2422
     20 N          65.8696   91.2191   14.9175 N.am    1  UNL1        0.0289
     21 N          67.0088   93.1479   11.0146 N.pl3   1  UNL1       -0.1888
     22 C          67.8679   92.4061   10.0340 C.3     1  UNL1        0.2343
     23 C          68.2476   93.0490    8.7330 C.3     1  UNL1        0.1929
     24 O          67.7682   94.4338    8.4127 O.3     1  UNL1       -0.3449
     25 C          66.9091   95.1757    9.3934 C.3     1  UNL1        0.1929
     26 C          66.5294   94.5328   10.6944 C.3     1  UNL1        0.2343
@<TRIPOS>BOND
     1     2     3    2
     2     3     1    1
     3     1    14    1
     4    14    15    1
     5    15    16    2
     6    16    21    1
     7    21    22    1
     8    22    23    1
     9    23    24    1
    10    24    25    1
    11    25    26    1
    12    16    17    1
    13    17    18    1
    14    18    19    2
    15    18    20    1
    16     3     4   am
    17     4     5    1
    18     5     6    1
    19     6     7    1
    20     7     8   ar
    21     8     9    1
    22     8    10   ar
    23    10    11   ar
    24    11    12   ar
    25    12    13   ar
    26    20    14    2
    27    13     4    1
    28    26    21    1
    29    13     7   ar
@<TRIPOS>MOLECULE
*****
 26 29 0 0 0
SMALL
GASTEIGER

@<TRIPOS>ATOM
      1 C          64.4177   86.4519   15.1290 C.3     1  UNL1        0.2068
      2 O          62.4863   85.0605   16.1701 O.2     1  UNL1       -0.2739
      3 C          63.5274   85.2448   15.1061 C.2     1  UNL1        0.2419
      4 N          63.6783   84.2221   14.0192 N.am    1  UNL1       -0.2581
      5 C          64.6691   84.2709   12.8940 C.3     1  UNL1        0.1029
      6 C          64.4679   83.0500   12.0461 C.3     1  UNL1        0.0503
      7 C          63.3528   82.2467   12.6472 C.ar    1  UNL1        0.0038
      8 C          62.7188   80.9492   12.2417 C.ar    1  UNL1        0.0549
      9 CL         63.2069   80.2248   11.0222 Cl      1  UNL1       -0.0825
     10 C          61.5967   80.3761   13.0556 C.ar    1  UNL1        0.0112
     11 C          61.1087   81.1005   14.2750 C.ar    1  UNL1        0.0021
     12 C          61.7427   82.3980   14.6805 C.ar    1  UNL1        0.0146
     13 C          62.8648   82.9711   13.8666 C.ar    1  UNL1        0.0507
     14 C          64.1396   87.6065   14.2127 C.2     1  UNL1        0.3580
     15 N          64.8162   88.9254   14.4414 N.2     1  UNL1       -0.0039
     16 C          64.5381   90.0800   13.5251 C.2     1  UNL1        0.3159
     17 C          63.5833   89.9155   12.3801 C.3     1  UNL1        0.2333
     18 C          62.9066   88.5965   12.1513 C.2     1  UNL1        0.3644
     19 O          61.9518   88.4320   11.0061 O.2     1  UNL1       -0.2422
     20 N          63.1848   87.4419   13.0676 N.am    1  UNL1        0.0289
     21 N          65.2148   91.3990   13.7539 N.pl3   1  UNL1       -0.1888
     22 C          65.7046   91.7629   15.1242 C.3     1  UNL1        0.2343
     23 C          66.3813   93.0819   15.3529 C.3     1  UNL1        0.1929
     24 O          66.5681   94.0370   14.2115 O.3     1  UNL1       -0.3449
     25 C          66.0783   93.6730   12.8412 C.3     1  UNL1        0.1929
     26 C          65.4016   92.3540   12.6124 C.3     1  UNL1        0.2343
@<TRIPOS>BOND
     1     2     3    2
     2     3     1    1
     3     1    14    1
     4    14    15    1
     5    15    16    2
     6    16    21    1
     7    21    22    1
     8    22    23    1
     9    23    24    1
    10    24    25    1
    11    25    26    1
    12    16    17    1
    13    17    18    1
    14    18    19    2
    15    18    20    1
    16     3     4   am
    17     4     5    1
    18     5     6    1
    19     6     7    1
    20     7     8   ar
    21     8     9    1
    22     8    10   ar
    23    10    11   ar
    24    11    12   ar
    25    12    13   ar
    26    20    14    2
    27    13     4    1
    28    26    21    1
    29    13     7   ar
@<TRIPOS>MOLECULE
*****
 26 29 0 0 0
SMALL
GASTEIGER

@<TRIPOS>ATOM
      1 C          64.2071   88.1097   13.7797 C.3     1  UNL1        0.2068
      2 O          63.0777   90.2144   12.7578 O.2     1  UNL1       -0.2739
      3 C          63.3116   88.7329   12.7501 C.2     1  UNL1        0.2419
      4 N          62.6502   87.8744   11.7131 N.am    1  UNL1       -0.2581
      5 C          62.7889   86.3867   11.5808 C.3     1  UNL1        0.1029
      6 C          61.9584   85.9458   10.4122 C.3     1  UNL1        0.0503
      7 C          61.3063   87.1610    9.8222 C.ar    1  UNL1        0.0038
      8 C          60.3784   87.3361    8.6567 C.ar    1  UNL1        0.0549
      9 CL         59.9508   86.1442    7.8527 Cl      1  UNL1       -0.0825
     10 C          59.8781   88.7032    8.2953 C.ar    1  UNL1        0.0112
     11 C          60.3057   89.8952    9.0993 C.ar    1  UNL1        0.0021
     12 C          61.2336   89.7200   10.2647 C.ar    1  UNL1        0.0146
     13 C          61.7338   88.3529   10.6262 C.ar    1  UNL1        0.0507
     14 C          63.7000   86.9849   14.6327 C.2     1  UNL1        0.3580
     15 N          63.5730   85.6055   14.0573 N.2     1  UNL1       -0.0039
     16 C          63.0658   84.4807   14.9103 C.2     1  UNL1        0.3159
     17 C          62.6857   84.7354   16.3388 C.3     1  UNL1        0.2333
     18 C          62.8127   86.1148   16.9142 C.2     1  UNL1        0.3644
     19 O          62.4325   86.3694   18.3428 O.2     1  UNL1       -0.2422
     20 N          63.3198   87.2395   16.0612 N.am    1  UNL1        0.0289
     21 N          62.9388   83.1013   14.3348 N.pl3   1  UNL1       -0.1888
     22 C          61.7133   82.2825   14.6132 C.3     1  UNL1        0.2343
     23 C          61.5863   80.9031   14.0378 C.3     1  UNL1        0.1929
     24 O          62.6848   80.3426   13.1839 O.3     1  UNL1       -0.3449
     25 C          63.9104   81.1615   12.9054 C.3     1  UNL1        0.1929
     26 C          64.0374   82.5409   13.4809 C.3     1  UNL1        0.2343
@<TRIPOS>BOND
     1     2     3    2
     2     3     1    1
     3     1    14    1
     4    14    15    1
     5    15    16    2
     6    16    21    1
     7    21    22    1
     8    22    23    1
     9    23    24    1
    10    24    25    1
    11    25    26    1
    12    16    17    1
    13    17    18    1
    14    18    19    2
    15    18    20    1
    16     3     4   am
    17     4     5    1
    18     5     6    1
    19     6     7    1
    20     7     8   ar
    21     8     9    1
    22     8    10   ar
    23    10    11   ar
    24    11    12   ar
    25    12    13   ar
    26    20    14    2
    27    13     4    1
    28    26    21    1
    29    13     7   ar
@<TRIPOS>MOLECULE
*****
 26 29 0 0 0
SMALL
GASTEIGER

@<TRIPOS>ATOM
      1 C          64.7692   86.7716   15.1562 C.3     1  UNL1        0.2068
      2 O          66.0699   84.8667   13.9605 O.2     1  UNL1       -0.2739
      3 C          64.8097   85.3836   14.5885 C.2     1  UNL1        0.2419
      4 N          63.5898   84.5128   14.6489 N.am    1  UNL1       -0.2581
      5 C          62.2653   84.8907   15.2429 C.3     1  UNL1        0.1029
      6 C          61.3373   83.7226   15.0870 C.3     1  UNL1        0.0503
      7 C          62.0882   82.6228   14.3967 C.ar    1  UNL1        0.0038
      8 C          61.6842   81.2398   13.9796 C.ar    1  UNL1        0.0549
      9 CL         60.2920   80.7514   14.2504 Cl      1  UNL1       -0.0825
     10 C          62.6724   80.3451   13.2919 C.ar    1  UNL1        0.0112
     11 C          64.0646   80.8335   13.0211 C.ar    1  UNL1        0.0021
     12 C          64.4686   82.2165   13.4381 C.ar    1  UNL1        0.0146
     13 C          63.4804   83.1112   14.1259 C.ar    1  UNL1        0.0507
     14 C          64.3178   87.9186   14.3015 C.2     1  UNL1        0.3580
     15 N          63.4720   87.6632   13.0893 N.2     1  UNL1       -0.0039
     16 C          63.0205   88.8103   12.2346 C.2     1  UNL1        0.3159
     17 C          63.4149   90.2126   12.5921 C.3     1  UNL1        0.2333
     18 C          64.2608   90.4679   13.8043 C.2     1  UNL1        0.3644
     19 O          64.6552   91.8704   14.1618 O.2     1  UNL1       -0.2422
     20 N          64.7122   89.3209   14.6590 N.am    1  UNL1        0.0289
     21 N          62.1747   88.5549   11.0224 N.pl3   1  UNL1       -0.1888
     22 C          61.3983   89.6772   10.3997 C.3     1  UNL1        0.2343
     23 C          60.5525   89.4218    9.1875 C.3     1  UNL1        0.1929
     24 O          60.4831   88.0443    8.5981 O.3     1  UNL1       -0.3449
     25 C          61.2595   86.9220    9.2208 C.3     1  UNL1        0.1929
     26 C          62.1053   87.1773   10.4330 C.3     1  UNL1        0.2343
@<TRIPOS>BOND
     1     2     3    2
     2     3     1    1
     3     1    14    1
     4    14    15    1
     5    15    16    2
     6    16    21    1
     7    21    22    1
     8    22    23    1
     9    23    24    1
    10    24    25    1
    11    25    26    1
    12    16    17    1
    13    17    18    1
    14    18    19    2
    15    18    20    1
    16     3     4   am
    17     4     5    1
    18     5     6    1
    19     6     7    1
    20     7     8   ar
    21     8     9    1
    22     8    10   ar
    23    10    11   ar
    24    11    12   ar
    25    12    13   ar
    26    20    14    2
    27    13     4    1
    28    26    21    1
    29    13     7   ar
