@<TRIPOS>MOLECULE
*****
 44 49 0 0 0
SMALL
GASTEIGER

@<TRIPOS>ATOM
      1 N          64.0084   95.6781   -2.2477 N.am    1  UNL1       -0.2222
      2 C          64.8233   95.6697   -0.9882 C.2     1  UNL1        0.3219
      3 O          66.3165   95.5539   -0.9050 O.2     1  UNL1       -0.2512
      4 N          63.8827   95.7974    0.1733 N.am    1  UNL1       -0.1907
      5 C          62.4866   95.8847   -0.3682 C.2     1  UNL1        0.2529
      6 O          61.2329   96.0217    0.4438 O.2     1  UNL1       -0.2724
      7 C          62.5643   95.8110   -1.8645 C.3     1  UNL1        0.1391
      8 C          62.7976   95.7256   -3.3437 C.3     1  UNL1        0.0449
      9 C          61.6353   95.7760   -4.2904 C.3     1  UNL1        0.0746
     10 N          60.2396   95.9118   -3.7579 N.3     1  UNL1       -0.2676
     11 C          60.0062   95.9972   -2.2787 C.3     1  UNL1        0.0746
     12 C          61.1686   95.9468   -1.3320 C.3     1  UNL1        0.0449
     13 C          65.4241   94.1230   -5.6132 C.ar    1  UNL1        0.2293
     14 C          64.8888   94.2289   -4.2160 C.ar    1  UNL1        0.0924
     15 C          64.5437   95.5723   -3.6449 C.ar    1  UNL1        0.1453
     16 N          64.7340   96.8098   -4.4709 N.ar    1  UNL1       -0.2084
     17 C          65.2693   96.7040   -5.8681 C.ar    1  UNL1        0.2027
     18 N          65.6144   95.3605   -6.4393 N.ar    1  UNL1       -0.1892
     19 C          64.6793   91.8062   -6.5228 C.3     1  UNL1        0.2542
     20 O          65.7692   92.7797   -6.1844 O.3     1  UNL1       -0.4560
     21 C          64.2702   95.8316    1.6219 C.ar    1  UNL1        0.0622
     22 C          63.6268   96.8215    2.5471 C.ar    1  UNL1        0.0154
     23 C          64.0143   96.8558    3.9958 C.ar    1  UNL1        0.0013
     24 C          65.0453   95.9002    4.5193 C.ar    1  UNL1        0.0001
     25 C          65.6888   94.9103    3.5940 C.ar    1  UNL1        0.0013
     26 C          65.3012   94.8761    2.1453 C.ar    1  UNL1        0.0154
     27 C          65.4328   95.9345    5.9679 C.ar    1  UNL1        0.0008
     28 C          64.6898   96.8217    6.9223 C.ar    1  UNL1        0.0001
     29 C          65.0773   96.8560    8.3710 C.ar    1  UNL1        0.0020
     30 C          66.2080   96.0030    8.8652 C.ar    1  UNL1        0.0246
     31 C          66.9510   95.1159    7.9108 C.ar    1  UNL1        0.0587
     32 CL         68.0816   94.2630    8.4052 Cl      1  UNL1       -0.0822
     33 C          66.5635   95.0816    6.4623 C.ar    1  UNL1        0.0114
     34 C          66.5955   96.0373   10.3139 C.2     1  UNL1        0.0737
     35 O          65.8064   95.2532   11.3201 O.co2   1  UNL1       -0.5446
     36 O          67.7722   96.8558   10.7563 O.co2   1  UNL1       -0.5446
     37 C          59.0772   95.9621   -4.7048 C.3     1  UNL1        0.1183
     38 C          57.6750   95.9462   -4.1724 C.ar    1  UNL1        0.0712
     39 N          57.2911   96.8557   -3.0430 N.ar    1  UNL1       -0.2471
     40 C          55.8888   96.8396   -2.5106 C.ar    1  UNL1        0.0985
     41 C          54.8704   95.9142   -3.1076 C.ar    1  UNL1        0.0203
     42 C          55.2543   95.0047   -4.2370 C.ar    1  UNL1       -0.0015
     43 C          56.6565   95.0207   -4.7693 C.ar    1  UNL1       -0.0069
     44 C          57.0404   94.1112   -5.8987 C.3     1  UNL1        0.0323
@<TRIPOS>UNITY_ATOM_ATTR
35 1
charge -1
@<TRIPOS>BOND
     1    19    20    1
     2    20    13    1
     3    13    14   ar
     4    14    15   ar
     5    15     1    1
     6     1     2   am
     7     2     3    2
     8     2     4   am
     9     4    21    1
    10    21    22   ar
    11    22    23   ar
    12    23    24   ar
    13    24    27    1
    14    27    28   ar
    15    28    29   ar
    16    29    30   ar
    17    30    34    1
    18    34    35   ar
    19    34    36   ar
    20    30    31   ar
    21    31    32    1
    22    31    33   ar
    23    24    25   ar
    24    25    26   ar
    25     4     5   am
    26     5     6    2
    27     5     7    1
    28     7     8    1
    29     8     9    1
    30     9    10    1
    31    10    37    1
    32    37    38    1
    33    38    39   ar
    34    39    40   ar
    35    40    41   ar
    36    41    42   ar
    37    42    43   ar
    38    43    44    1
    39    10    11    1
    40    11    12    1
    41    15    16   ar
    42    16    17   ar
    43    17    18   ar
    44    18    13   ar
    45     7     1    1
    46    43    38   ar
    47    26    21   ar
    48    12     7    1
    49    33    27   ar
@<TRIPOS>MOLECULE
*****
 44 49 0 0 0
SMALL
GASTEIGER

@<TRIPOS>ATOM
      1 N          63.6561   94.7905   -2.3829 N.am    1  UNL1       -0.2222
      2 C          64.4427   94.6343   -1.1152 C.2     1  UNL1        0.3219
      3 O          65.7332   93.8846   -0.9651 O.2     1  UNL1       -0.2512
      4 N          63.7121   95.3594   -0.0240 N.am    1  UNL1       -0.1907
      5 C          62.4741   95.9637   -0.6173 C.2     1  UNL1        0.2529
      6 O          61.4504   96.7769    0.1180 O.2     1  UNL1       -0.2724
      7 C          62.4394   95.6122   -2.0752 C.3     1  UNL1        0.1391
      8 C          62.5399   95.1842   -3.5093 C.3     1  UNL1        0.0449
      9 C          61.4755   95.5840   -4.4876 C.3     1  UNL1        0.0746
     10 N          60.3106   96.4119   -4.0318 N.3     1  UNL1       -0.2676
     11 C          60.2102   96.8399   -2.5977 C.3     1  UNL1        0.0746
     12 C          61.2745   96.4400   -1.6194 C.3     1  UNL1        0.0449
     13 C          65.2421   94.4538   -6.0052 C.ar    1  UNL1        0.2293
     14 C          64.8762   95.0198   -4.6651 C.ar    1  UNL1        0.0924
     15 C          64.0219   94.2245   -3.7229 C.ar    1  UNL1        0.1453
     16 N          63.5335   92.8632   -4.1208 N.ar    1  UNL1       -0.2084
     17 C          63.8993   92.2971   -5.4608 C.ar    1  UNL1        0.2027
     18 N          64.7537   93.0924   -6.4030 N.ar    1  UNL1       -0.1892
     19 C          65.8108   96.7043   -7.1719 C.3     1  UNL1        0.2542
     20 O          66.0963   95.2490   -6.9474 O.3     1  UNL1       -0.4560
     21 C          64.1438   95.4621    1.4087 C.ar    1  UNL1        0.0622
     22 C          64.6996   96.7525    1.9340 C.ar    1  UNL1        0.0154
     23 C          65.1313   96.8552    3.3668 C.ar    1  UNL1        0.0013
     24 C          65.0072   95.6675    4.2745 C.ar    1  UNL1        0.0001
     25 C          64.4514   94.3769    3.7493 C.ar    1  UNL1        0.0013
     26 C          64.0197   94.2743    2.3164 C.ar    1  UNL1        0.0154
     27 C          65.4389   95.7702    5.7074 C.ar    1  UNL1        0.0008
     28 C          64.7371   96.7161    6.6362 C.ar    1  UNL1        0.0001
     29 C          65.1689   96.8188    8.0690 C.ar    1  UNL1        0.0020
     30 C          66.3024   95.9755    8.5730 C.ar    1  UNL1        0.0246
     31 C          67.0042   95.0296    7.6442 C.ar    1  UNL1        0.0587
     32 CL         68.1377   94.1863    8.1483 Cl      1  UNL1       -0.0822
     33 C          66.5725   94.9269    6.2114 C.ar    1  UNL1        0.0114
     34 C          66.7341   96.0782   10.0059 C.2     1  UNL1        0.0737
     35 O          65.7775   96.5878   11.0427 O.co2   1  UNL1       -0.5446
     36 O          68.1226   95.6712   10.4019 O.co2   1  UNL1       -0.5446
     37 C          59.2462   96.8118   -5.0102 C.3     1  UNL1        0.1183
     38 C          58.2459   95.8001   -5.4853 C.ar    1  UNL1        0.0712
     39 N          58.6430   94.7745   -6.5054 N.ar    1  UNL1       -0.2471
     40 C          57.6426   93.7627   -6.9805 C.ar    1  UNL1        0.0985
     41 C          56.2452   93.7766   -6.4355 C.ar    1  UNL1        0.0203
     42 C          55.8481   94.8021   -5.4154 C.ar    1  UNL1       -0.0015
     43 C          56.8484   95.8138   -4.9403 C.ar    1  UNL1       -0.0069
     44 C          56.4513   96.8394   -3.9202 C.3     1  UNL1        0.0323
@<TRIPOS>UNITY_ATOM_ATTR
35 1
charge -1
@<TRIPOS>BOND
     1    19    20    1
     2    20    13    1
     3    13    14   ar
     4    14    15   ar
     5    15     1    1
     6     1     2   am
     7     2     3    2
     8     2     4   am
     9     4    21    1
    10    21    22   ar
    11    22    23   ar
    12    23    24   ar
    13    24    27    1
    14    27    28   ar
    15    28    29   ar
    16    29    30   ar
    17    30    34    1
    18    34    35   ar
    19    34    36   ar
    20    30    31   ar
    21    31    32    1
    22    31    33   ar
    23    24    25   ar
    24    25    26   ar
    25     4     5   am
    26     5     6    2
    27     5     7    1
    28     7     8    1
    29     8     9    1
    30     9    10    1
    31    10    37    1
    32    37    38    1
    33    38    39   ar
    34    39    40   ar
    35    40    41   ar
    36    41    42   ar
    37    42    43   ar
    38    43    44    1
    39    10    11    1
    40    11    12    1
    41    15    16   ar
    42    16    17   ar
    43    17    18   ar
    44    18    13   ar
    45     7     1    1
    46    43    38   ar
    47    26    21   ar
    48    12     7    1
    49    33    27   ar
@<TRIPOS>MOLECULE
*****
 44 49 0 0 0
SMALL
GASTEIGER

@<TRIPOS>ATOM
      1 N          60.3028   88.8780   10.3181 N.am    1  UNL1       -0.2222
      2 C          59.9570   89.9693    9.3487 C.2     1  UNL1        0.3219
      3 O          59.4233   91.3258    9.7019 O.2     1  UNL1       -0.2512
      4 N          60.2388   89.4656    7.9641 N.am    1  UNL1       -0.1907
      5 C          60.7586   88.0632    8.0778 C.2     1  UNL1        0.2529
      6 O          61.1672   87.1792    6.9370 O.2     1  UNL1       -0.2724
      7 C          60.7982   87.7000    9.5327 C.3     1  UNL1        0.1391
      8 C          60.7817   87.4806   11.0164 C.3     1  UNL1        0.0449
      9 C          61.2368   86.1696   11.5858 C.3     1  UNL1        0.0746
     10 N          61.7083   85.0780   10.6714 N.3     1  UNL1       -0.2676
     11 C          61.7248   85.2974    9.1876 C.3     1  UNL1        0.0746
     12 C          61.2697   86.6084    8.6183 C.3     1  UNL1        0.0449
     13 C          61.2305   89.4188   14.1387 C.ar    1  UNL1        0.2293
     14 C          61.3578   89.3450   12.6459 C.ar    1  UNL1        0.0924
     15 C          60.1754   88.9518   11.8109 C.ar    1  UNL1        0.1453
     16 N          58.8657   88.6323   12.4686 N.ar    1  UNL1       -0.2084
     17 C          58.7383   88.7061   13.9613 C.ar    1  UNL1        0.2027
     18 N          59.9208   89.0994   14.7964 N.ar    1  UNL1       -0.1892
     19 C          63.5780   90.5134   14.3409 C.3     1  UNL1        0.2542
     20 O          62.4128   89.8121   14.9737 O.3     1  UNL1       -0.4560
     21 C          60.0362   90.2302    6.6897 C.ar    1  UNL1        0.0622
     22 C          61.2198   90.6364    5.8625 C.ar    1  UNL1        0.0154
     23 C          61.0172   91.4011    4.5880 C.ar    1  UNL1        0.0013
     24 C          59.6311   91.7595    4.1407 C.ar    1  UNL1        0.0001
     25 C          58.4474   91.3533    4.9678 C.ar    1  UNL1        0.0013
     26 C          58.6501   90.5886    6.2423 C.ar    1  UNL1        0.0154
     27 C          59.4285   92.5241    2.8661 C.ar    1  UNL1        0.0008
     28 C          58.4635   92.0200    1.8344 C.ar    1  UNL1        0.0001
     29 C          58.2610   92.7846    0.5599 C.ar    1  UNL1        0.0020
     30 C          59.0235   94.0534    0.3173 C.ar    1  UNL1        0.0246
     31 C          59.9884   94.5575    1.3490 C.ar    1  UNL1        0.0587
     32 CL         60.7509   95.8263    1.1063 Cl      1  UNL1       -0.0822
     33 C          60.1910   93.7929    2.6235 C.ar    1  UNL1        0.0114
     34 C          58.8209   94.8180   -0.9573 C.2     1  UNL1        0.0737
     35 O          57.6758   95.7789   -1.0815 O.co2   1  UNL1       -0.5446
     36 O          59.7634   94.6216   -2.1076 O.co2   1  UNL1       -0.5446
     37 C          62.1634   83.7670   11.2408 C.3     1  UNL1        0.1183
     38 C          62.8770   83.7294   12.5596 C.ar    1  UNL1        0.0712
     39 N          63.7376   84.8838   12.9799 N.ar    1  UNL1       -0.2471
     40 C          64.4513   84.8462   14.2988 C.ar    1  UNL1        0.0985
     41 C          64.3042   83.6541   15.1973 C.ar    1  UNL1        0.0203
     42 C          63.4436   82.4997   14.7771 C.ar    1  UNL1       -0.0015
     43 C          62.7300   82.5373   13.4583 C.ar    1  UNL1       -0.0069
     44 C          61.8693   81.3829   13.0380 C.3     1  UNL1        0.0323
@<TRIPOS>UNITY_ATOM_ATTR
35 1
charge -1
@<TRIPOS>BOND
     1    19    20    1
     2    20    13    1
     3    13    14   ar
     4    14    15   ar
     5    15     1    1
     6     1     2   am
     7     2     3    2
     8     2     4   am
     9     4    21    1
    10    21    22   ar
    11    22    23   ar
    12    23    24   ar
    13    24    27    1
    14    27    28   ar
    15    28    29   ar
    16    29    30   ar
    17    30    34    1
    18    34    35   ar
    19    34    36   ar
    20    30    31   ar
    21    31    32    1
    22    31    33   ar
    23    24    25   ar
    24    25    26   ar
    25     4     5   am
    26     5     6    2
    27     5     7    1
    28     7     8    1
    29     8     9    1
    30     9    10    1
    31    10    37    1
    32    37    38    1
    33    38    39   ar
    34    39    40   ar
    35    40    41   ar
    36    41    42   ar
    37    42    43   ar
    38    43    44    1
    39    10    11    1
    40    11    12    1
    41    15    16   ar
    42    16    17   ar
    43    17    18   ar
    44    18    13   ar
    45     7     1    1
    46    43    38   ar
    47    26    21   ar
    48    12     7    1
    49    33    27   ar
