@<TRIPOS>MOLECULE
*****
 60 67 0 0 0
SMALL
GASTEIGER

@<TRIPOS>ATOM
      1 N          64.0548   86.3122   15.8168 N.3     1  UNL1       -0.1862
      2 C          64.2140   84.8487   16.1046 C.3     1  UNL1        0.1775
      3 C          64.0021   83.8422   15.0128 C.2     1  UNL1        0.2452
      4 O          64.1613   82.3787   15.3007 O.2     1  UNL1       -0.2732
      5 N          63.6310   84.2992   13.6332 N.am    1  UNL1       -0.2541
      6 C          63.4191   83.2927   12.5414 C.3     1  UNL1        0.1577
      7 C          63.0480   83.7496   11.1617 C.2     1  UNL1        0.2445
      8 O          62.8361   82.7431   10.0699 O.2     1  UNL1       -0.2731
      9 N          62.8887   85.2132   10.8739 N.am    1  UNL1       -0.2705
     10 C          63.1006   86.2197   11.9657 C.3     1  UNL1        0.1359
     11 C          63.4718   85.7626   13.3454 C.3     1  UNL1        0.1908
     12 N          63.6837   86.7692   14.4372 N.am    1  UNL1       -0.1863
     13 C          63.5244   88.2327   14.1493 C.2     1  UNL1        0.3191
     14 O          63.1533   88.6896   12.7697 O.2     1  UNL1       -0.2512
     15 N          63.7363   89.2392   15.2411 N.am    1  UNL1       -0.2836
     16 H          63.9799   88.9393   16.1466 H       1  UNL1        0.1513
     17 C          64.2667   87.3187   16.9086 C.3     1  UNL1        0.1188
     18 C          62.4229   86.7557   18.6502 C.2     1  UNL1       -0.0034
     19 C          63.1133   87.7504   17.7649 C.2     1  UNL1       -0.0071
     20 C          63.5783   81.8292   12.8292 C.3     1  UNL1        0.0556
     21 C          62.3926   81.0153   13.2554 C.ar    1  UNL1       -0.0198
     22 C          61.1504   81.6990   13.7448 C.ar    1  UNL1       -0.0011
     23 C          59.9647   80.8851   14.1710 C.ar    1  UNL1        0.0363
     24 C          60.0211   79.3875   14.1077 C.ar    1  UNL1        0.1337
     25 O          58.8354   78.5736   14.5339 O.3     1  UNL1       -0.5055
     26 C          61.2633   78.7038   13.6182 C.ar    1  UNL1        0.0363
     27 C          62.4490   79.5177   13.1920 C.ar    1  UNL1       -0.0011
     28 H          58.0595   79.0007   14.8396 H       1  UNL1        0.2922
     29 C          62.5176   85.6701    9.4942 C.3     1  UNL1        0.1217
     30 C          61.9421   87.0398    9.2873 C.ar    1  UNL1        0.0135
     31 C          62.3808   88.1775   10.1608 C.ar    1  UNL1       -0.0012
     32 C          61.8053   89.5472    9.9539 C.ar    1  UNL1       -0.0002
     33 C          60.7910   89.7791    8.8734 C.ar    1  UNL1        0.0016
     34 C          60.3523   88.6414    7.9998 C.ar    1  UNL1        0.0214
     35 C          59.3766   88.5672    6.8629 C.ar    1  UNL1        0.0721
     36 C          59.3492   87.1518    6.3672 C.ar    1  UNL1        0.0805
     37 N          60.3078   86.3512    7.1978 N.ar    1  UNL1       -0.3241
     38 C          60.5960   84.8869    7.0460 C.3     1  UNL1        0.1305
     39 C          60.9278   87.2717    8.2068 C.ar    1  UNL1        0.0577
     40 C          58.5700   89.7083    6.3175 C.2     1  UNL1        0.2505
     41 O          57.1375   89.8782    6.7287 O.2     1  UNL1       -0.2699
     42 N          59.1959   90.6794    5.3609 N.am    1  UNL1       -0.2759
     43 C          58.3894   91.8204    4.8154 C.3     1  UNL1        0.0951
     44 C          59.0153   92.7916    3.8588 C.3     1  UNL1        0.0375
     45 C          60.4478   92.6217    3.4476 C.3     1  UNL1        0.0611
     46 C          61.2544   91.4806    3.9931 C.3     1  UNL1        0.0375
     47 C          60.6285   90.5095    4.9497 C.3     1  UNL1        0.0951
     48 N          61.0737   93.5928    2.4910 N.3     1  UNL1       -0.2696
     49 C          60.3774   94.8814    2.1675 C.3     1  UNL1        0.1046
     50 C          61.0033   95.8525    1.2109 C.3     1  UNL1        0.1595
     51 O          62.3256   95.5350    0.5778 O.3     1  UNL1       -0.3508
     52 C          63.0219   94.2464    0.9012 C.3     1  UNL1        0.1595
     53 C          62.3960   93.2753    1.8578 C.3     1  UNL1        0.1046
     54 C          63.5771   90.7027   14.9533 C.3     1  UNL1        0.1177
     55 C          64.6198   91.4278   14.1552 C.ar    1  UNL1       -0.0025
     56 C          64.4192   91.6500   12.6854 C.ar    1  UNL1       -0.0026
     57 C          65.4619   92.3752   11.8873 C.ar    1  UNL1       -0.0003
     58 C          66.7051   92.8782   12.5590 C.ar    1  UNL1       -0.0000
     59 C          66.9057   92.6561   14.0289 C.ar    1  UNL1       -0.0003
     60 C          65.8631   91.9309   14.8270 C.ar    1  UNL1       -0.0026
@<TRIPOS>BOND
     1    18    19    2
     2    19    17    1
     3    17     1    1
     4     1     2    1
     5     2     3    1
     6     3     4    2
     7     3     5   am
     8     5     6    1
     9     6    20    1
    10    20    21    1
    11    21    22   ar
    12    22    23   ar
    13    23    24   ar
    14    24    25    1
    15    24    26   ar
    16    26    27   ar
    17     6     7    1
    18     7     8    2
    19     7     9   am
    20     9    29    1
    21    29    30    1
    22    30    31   ar
    23    31    32   ar
    24    32    33   ar
    25    33    34   ar
    26    34    35   ar
    27    35    40    1
    28    40    41    2
    29    40    42   am
    30    42    43    1
    31    43    44    1
    32    44    45    1
    33    45    48    1
    34    48    49    1
    35    49    50    1
    36    50    51    1
    37    51    52    1
    38    52    53    1
    39    45    46    1
    40    46    47    1
    41    35    36   ar
    42    36    37   ar
    43    37    38    1
    44    37    39   ar
    45     9    10    1
    46    11    10    1
    47    11    12    1
    48    12    13   am
    49    13    14    2
    50    13    15   am
    51    15    54    1
    52    54    55    1
    53    55    56   ar
    54    56    57   ar
    55    57    58   ar
    56    58    59   ar
    57    59    60   ar
    58    12     1    1
    59    60    55   ar
    60    11     5    1
    61    27    21   ar
    62    39    30   ar
    63    39    34   ar
    64    47    42    1
    65    53    48    1
    66    25    28    1
    67    15    16    1
@<TRIPOS>MOLECULE
*****
 60 67 0 0 0
SMALL
GASTEIGER

@<TRIPOS>ATOM
      1 N          63.3889   86.6353   16.2632 N.3     1  UNL1       -0.1862
      2 C          63.2158   85.1761   16.5642 C.3     1  UNL1        0.1775
      3 C          62.9530   84.2065   15.4503 C.2     1  UNL1        0.2452
      4 O          62.7798   82.7472   15.7514 O.2     1  UNL1       -0.2732
      5 N          62.8634   84.6961   14.0353 N.am    1  UNL1       -0.2541
      6 C          62.6006   83.7265   12.9214 C.3     1  UNL1        0.1577
      7 C          62.5109   84.2161   11.5064 C.2     1  UNL1        0.2445
      8 O          62.2482   83.2465   10.3925 O.2     1  UNL1       -0.2731
      9 N          62.6841   85.6754   11.2053 N.am    1  UNL1       -0.2705
     10 C          62.9469   86.6450   12.3192 C.3     1  UNL1        0.1359
     11 C          63.0365   86.1553   13.7343 C.3     1  UNL1        0.1908
     12 N          63.2993   87.1249   14.8482 N.am    1  UNL1       -0.1863
     13 C          63.4725   88.5842   14.5471 C.2     1  UNL1        0.3191
     14 O          63.3829   89.0738   13.1321 O.2     1  UNL1       -0.2512
     15 N          63.7353   89.5538   15.6610 N.am    1  UNL1       -0.2836
     16 H          63.7941   89.2324   16.5897 H       1  UNL1        0.1513
     17 C          63.6517   87.6049   17.3771 C.3     1  UNL1        0.1188
     18 C          62.7462   87.0847   19.7560 C.2     1  UNL1       -0.0034
     19 C          62.6237   87.8116   18.4496 C.2     1  UNL1       -0.0071
     20 C          62.4274   82.2673   13.2224 C.3     1  UNL1        0.0556
     21 C          62.7082   81.2443   12.1620 C.ar    1  UNL1       -0.0198
     22 C          63.4343   81.6408   10.9109 C.ar    1  UNL1       -0.0011
     23 C          63.7151   80.6177    9.8504 C.ar    1  UNL1        0.0363
     24 C          63.2697   79.1981   10.0412 C.ar    1  UNL1        0.1337
     25 O          63.5505   78.1751    8.9807 O.3     1  UNL1       -0.5055
     26 C          62.5435   78.8016   11.2924 C.ar    1  UNL1        0.0363
     27 C          62.2627   79.8246   12.3528 C.ar    1  UNL1       -0.0011
     28 H          64.0041   78.4228    8.1992 H       1  UNL1        0.2922
     29 C          62.5945   86.1650    9.7903 C.3     1  UNL1        0.1217
     30 C          61.9753   87.4993    9.4961 C.ar    1  UNL1        0.0135
     31 C          62.3401   88.6946   10.3256 C.ar    1  UNL1       -0.0012
     32 C          61.7209   90.0288   10.0314 C.ar    1  UNL1       -0.0002
     33 C          60.7369   90.1676    8.9078 C.ar    1  UNL1        0.0016
     34 C          60.3721   88.9722    8.0784 C.ar    1  UNL1        0.0214
     35 C          59.4401   88.8043    6.9151 C.ar    1  UNL1        0.0721
     36 C          59.4834   87.3664    6.4903 C.ar    1  UNL1        0.0805
     37 N          60.4420   86.6456    7.3911 N.ar    1  UNL1       -0.3241
     38 C          60.7902   85.1882    7.3224 C.3     1  UNL1        0.1305
     39 C          60.9913   87.6380    8.3726 C.ar    1  UNL1        0.0577
     40 C          58.6106   89.8847    6.2869 C.2     1  UNL1        0.2505
     41 O          57.1695   90.0435    6.6719 O.2     1  UNL1       -0.2699
     42 N          59.2221   90.8064    5.2737 N.am    1  UNL1       -0.2759
     43 C          58.3926   91.8868    4.6455 C.3     1  UNL1        0.0951
     44 C          59.0041   92.8084    3.6322 C.3     1  UNL1        0.0375
     45 C          60.4451   92.6497    3.2472 C.3     1  UNL1        0.0611
     46 C          61.2746   91.5693    3.8755 C.3     1  UNL1        0.0375
     47 C          60.6631   90.6476    4.8887 C.3     1  UNL1        0.0951
     48 N          61.0566   93.5714    2.2340 N.3     1  UNL1       -0.2696
     49 C          60.1762   94.3835    1.3311 C.3     1  UNL1        0.1046
     50 C          60.7877   95.3051    0.3179 C.3     1  UNL1        0.1595
     51 O          62.2797   95.4146    0.2077 O.3     1  UNL1       -0.3508
     52 C          63.1601   94.6025    1.1106 C.3     1  UNL1        0.1595
     53 C          62.5486   93.6809    2.1238 C.3     1  UNL1        0.1046
     54 C          63.9085   91.0130   15.3600 C.3     1  UNL1        0.1177
     55 C          65.2843   91.5851   15.1876 C.ar    1  UNL1       -0.0025
     56 C          65.8660   92.4721   16.2482 C.ar    1  UNL1       -0.0026
     57 C          67.2419   93.0442   16.0759 C.ar    1  UNL1       -0.0003
     58 C          68.0360   92.7294   14.8429 C.ar    1  UNL1       -0.0000
     59 C          67.4543   91.8424   13.7822 C.ar    1  UNL1       -0.0003
     60 C          66.0785   91.2703   13.9546 C.ar    1  UNL1       -0.0026
@<TRIPOS>BOND
     1    18    19    2
     2    19    17    1
     3    17     1    1
     4     1     2    1
     5     2     3    1
     6     3     4    2
     7     3     5   am
     8     5     6    1
     9     6    20    1
    10    20    21    1
    11    21    22   ar
    12    22    23   ar
    13    23    24   ar
    14    24    25    1
    15    24    26   ar
    16    26    27   ar
    17     6     7    1
    18     7     8    2
    19     7     9   am
    20     9    29    1
    21    29    30    1
    22    30    31   ar
    23    31    32   ar
    24    32    33   ar
    25    33    34   ar
    26    34    35   ar
    27    35    40    1
    28    40    41    2
    29    40    42   am
    30    42    43    1
    31    43    44    1
    32    44    45    1
    33    45    48    1
    34    48    49    1
    35    49    50    1
    36    50    51    1
    37    51    52    1
    38    52    53    1
    39    45    46    1
    40    46    47    1
    41    35    36   ar
    42    36    37   ar
    43    37    38    1
    44    37    39   ar
    45     9    10    1
    46    11    10    1
    47    11    12    1
    48    12    13   am
    49    13    14    2
    50    13    15   am
    51    15    54    1
    52    54    55    1
    53    55    56   ar
    54    56    57   ar
    55    57    58   ar
    56    58    59   ar
    57    59    60   ar
    58    12     1    1
    59    60    55   ar
    60    11     5    1
    61    27    21   ar
    62    39    30   ar
    63    39    34   ar
    64    47    42    1
    65    53    48    1
    66    25    28    1
    67    15    16    1
