@<TRIPOS>MOLECULE
*****
 36 41 0 0 0
SMALL
GASTEIGER

@<TRIPOS>ATOM
      1 C          63.2240   90.7129   11.5829 C.3     1  UNL1        0.1455
      2 C          63.4799   91.5986   10.3995 C.3     1  UNL1        0.1634
      3 O          64.6347   92.5557   10.4149 O.3     1  UNL1       -0.3507
      4 C          65.5335   92.6273   11.6136 C.3     1  UNL1        0.1598
      5 C          65.2777   91.7418   12.7969 C.3     1  UNL1        0.1093
      6 N          64.1229   90.7845   12.7816 N.3     1  UNL1       -0.1499
      7 C          62.0692   89.7558   11.5674 C.3     1  UNL1        0.1550
      8 C          60.9374   90.7166   11.3528 C.3     1  UNL1        0.0453
      9 C          60.6606   89.2478   11.4793 C.3     1  UNL1        0.0453
     10 O          62.7998   88.4626   11.7766 O.3     1  UNL1       -0.4403
     11 C          63.8075   82.9911   15.0114 C.3     1  UNL1        0.0896
     12 N          63.4323   82.4672   13.6569 N.3     1  UNL1       -0.2738
     13 C          63.2833   81.1029   13.0513 C.3     1  UNL1        0.0734
     14 C          62.9017   81.7261   11.7414 C.3     1  UNL1        0.0321
     15 C          63.0507   83.0903   12.3469 C.3     1  UNL1        0.0501
     16 C          63.2934   84.2467   13.2709 C.3     1  UNL1        0.0364
     17 C          63.1288   85.6520   12.7727 C.3     1  UNL1        0.0981
     18 N          62.7217   85.9008   11.3507 N.am    1  UNL1       -0.2459
     19 C          62.5572   87.3062   10.8526 C.2     1  UNL1        0.4047
     20 O          62.1500   87.5550    9.4305 O.2     1  UNL1       -0.2262
     21 C          62.4790   84.7444   10.4267 C.3     1  UNL1        0.0981
     22 C          62.6435   83.3391   10.9248 C.3     1  UNL1        0.0364
     23 S          63.8669   89.8989   13.9649 S.O2    1  UNL1        0.0635
     24 O          63.0742   90.9947   14.6135 O.2     1  UNL1       -0.1528
     25 O          64.5035   88.7492   13.6561 O.2     1  UNL1       -0.1528
     26 C          63.6110   89.0134   15.1482 C.ar    1  UNL1        0.1223
     27 C          63.0467   89.5938   16.4111 C.ar    1  UNL1        0.0208
     28 C          62.7907   88.7083   17.5944 C.ar    1  UNL1        0.0128
     29 C          63.0990   87.2424   17.5150 C.ar    1  UNL1        0.0578
     30 CL         62.8430   86.3569   18.6983 Cl      1  UNL1       -0.0822
     31 C          63.6632   86.6621   16.2521 C.ar    1  UNL1        0.0128
     32 C          63.9192   87.5476   15.0687 C.ar    1  UNL1        0.0208
     33 C          66.1765   91.8133   13.9956 C.3     1  UNL1        0.0203
     34 C          67.6601   91.9408   13.8141 C.3     1  UNL1        0.0015
     35 C          68.9936   92.4146   14.3110 C.3     1  UNL1        0.0000
     36 C          68.8960   91.6875   13.0027 C.3     1  UNL1        0.0000
@<TRIPOS>BOND
     1    11    12    1
     2    12    13    1
     3    13    14    1
     4    14    15    1
     5    15    16    1
     6    16    17    1
     7    17    18    1
     8    18    19   am
     9    19    20    2
    10    19    10    1
    11    10     7    1
    12     1     7    1
    13     1     2    1
    14     2     3    1
    15     3     4    1
    16     4     5    1
    17     5    33    1
    18    33    34    1
    19    34    35    1
    20    35    36    1
    21     5     6    1
    22     6    23    1
    23    23    24    2
    24    23    25    2
    25    23    26    1
    26    26    27   ar
    27    27    28   ar
    28    28    29   ar
    29    29    30    1
    30    29    31   ar
    31    31    32   ar
    32     7     8    1
    33     8     9    1
    34    18    21    1
    35    21    22    1
    36    15    12    1
    37     9     7    1
    38    22    15    1
    39     6     1    1
    40    32    26   ar
    41    36    34    1
@<TRIPOS>MOLECULE
*****
 36 41 0 0 0
SMALL
GASTEIGER

@<TRIPOS>ATOM
      1 C          60.4946   88.6704    9.7178 C.3     1  UNL1        0.1455
      2 C          59.7171   89.4586    8.7057 C.3     1  UNL1        0.1634
      3 O          59.2694   88.8073    7.4308 O.3     1  UNL1       -0.3507
      4 C          59.5992   87.3678    7.1680 C.3     1  UNL1        0.1598
      5 C          60.3766   86.5796    8.1800 C.3     1  UNL1        0.1093
      6 N          60.8244   87.2309    9.4549 N.3     1  UNL1       -0.1499
      7 C          60.9422   89.3218   10.9926 C.3     1  UNL1        0.1550
      8 C          59.6163   89.5103   11.6683 C.3     1  UNL1        0.0453
      9 C          60.8753   89.9601   12.3484 C.3     1  UNL1        0.0453
     10 O          62.4235   89.3594   10.7598 O.3     1  UNL1       -0.4403
     11 C          66.0097   91.6773   15.5746 C.3     1  UNL1        0.0896
     12 N          66.2469   92.7064   14.5094 N.3     1  UNL1       -0.2738
     13 C          67.0509   93.9693   14.4149 C.3     1  UNL1        0.0734
     14 C          66.5823   94.1619   13.0031 C.3     1  UNL1        0.0321
     15 C          65.7783   92.8992   13.0976 C.3     1  UNL1        0.0501
     16 C          65.1230   91.6295   13.5543 C.3     1  UNL1        0.0364
     17 C          64.2232   90.8728   12.6227 C.3     1  UNL1        0.0981
     18 N          63.9787   91.3858   11.2346 N.am    1  UNL1       -0.2459
     19 C          63.0788   90.6290   10.3030 C.2     1  UNL1        0.4047
     20 O          62.8343   91.1420    8.9149 O.2     1  UNL1       -0.2262
     21 C          64.6340   92.6554   10.7778 C.3     1  UNL1        0.0981
     22 C          65.5338   93.4121   11.7094 C.3     1  UNL1        0.0364
     23 S          61.6019   86.4427   10.4671 S.O2    1  UNL1        0.0635
     24 O          62.7540   86.3515    9.5109 O.2     1  UNL1       -0.1528
     25 O          60.7650   86.3507   11.5224 O.2     1  UNL1       -0.1528
     26 C          62.3794   85.6545   11.4791 C.ar    1  UNL1        0.1223
     27 C          63.0257   86.3535   12.6384 C.ar    1  UNL1        0.0208
     28 C          63.8032   85.5653   13.6504 C.ar    1  UNL1        0.0128
     29 C          63.9345   84.0784   13.5032 C.ar    1  UNL1        0.0578
     30 CL         64.7120   83.2902   14.5153 Cl      1  UNL1       -0.0822
     31 C          63.2882   83.3795   12.3439 C.ar    1  UNL1        0.0128
     32 C          62.5106   84.1676   11.3318 C.ar    1  UNL1        0.0208
     33 C          60.7065   85.1401    7.9173 C.3     1  UNL1        0.0203
     34 C          61.5067   84.7630    6.7058 C.3     1  UNL1        0.0015
     35 C          61.5761   84.1882    5.3221 C.3     1  UNL1        0.0000
     36 C          62.8233   84.6849    5.9913 C.3     1  UNL1        0.0000
@<TRIPOS>BOND
     1    11    12    1
     2    12    13    1
     3    13    14    1
     4    14    15    1
     5    15    16    1
     6    16    17    1
     7    17    18    1
     8    18    19   am
     9    19    20    2
    10    19    10    1
    11    10     7    1
    12     1     7    1
    13     1     2    1
    14     2     3    1
    15     3     4    1
    16     4     5    1
    17     5    33    1
    18    33    34    1
    19    34    35    1
    20    35    36    1
    21     5     6    1
    22     6    23    1
    23    23    24    2
    24    23    25    2
    25    23    26    1
    26    26    27   ar
    27    27    28   ar
    28    28    29   ar
    29    29    30    1
    30    29    31   ar
    31    31    32   ar
    32     7     8    1
    33     8     9    1
    34    18    21    1
    35    21    22    1
    36    15    12    1
    37     9     7    1
    38    22    15    1
    39     6     1    1
    40    32    26   ar
    41    36    34    1
@<TRIPOS>MOLECULE
*****
 36 41 0 0 0
SMALL
GASTEIGER

@<TRIPOS>ATOM
      1 C          64.4075   90.2678   14.7671 C.3     1  UNL1        0.1455
      2 C          65.4339   90.9339   15.6348 C.3     1  UNL1        0.1634
      3 O          66.3627   91.9554   15.0486 O.3     1  UNL1       -0.3507
      4 C          66.2652   92.3109   13.5946 C.3     1  UNL1        0.1598
      5 C          65.2388   91.6448   12.7268 C.3     1  UNL1        0.1093
      6 N          64.3100   90.6233   13.3131 N.3     1  UNL1       -0.1499
      7 C          63.4787   89.2463   15.3534 C.3     1  UNL1        0.1550
      8 C          62.4435   90.1502   15.9547 C.3     1  UNL1        0.0453
      9 C          62.3024   88.6619   16.0779 C.3     1  UNL1        0.0453
     10 O          64.1913   87.9876   14.9559 O.3     1  UNL1       -0.4403
     11 C          63.6479   83.4658   10.4090 C.3     1  UNL1        0.0896
     12 N          63.3482   82.6748   11.6478 N.3     1  UNL1       -0.2738
     13 C          63.0025   81.2436   11.9346 C.3     1  UNL1        0.0734
     14 C          62.9243   81.5561   13.3996 C.3     1  UNL1        0.0321
     15 C          63.2699   82.9872   13.1128 C.3     1  UNL1        0.0501
     16 C          63.6240   84.2888   12.4566 C.3     1  UNL1        0.0364
     17 C          63.8131   85.5217   13.2897 C.3     1  UNL1        0.0981
     18 N          63.6481   85.4531   14.7790 N.am    1  UNL1       -0.2459
     19 C          63.8371   86.6861   15.6121 C.2     1  UNL1        0.4047
     20 O          63.6721   86.6176   17.1014 O.2     1  UNL1       -0.2262
     21 C          63.2940   84.1516   15.4352 C.3     1  UNL1        0.0981
     22 C          63.1049   82.9186   14.6021 C.3     1  UNL1        0.0364
     23 S          63.2836   89.9572   12.4454 S.O2    1  UNL1        0.0635
     24 O          62.4845   91.2262   12.4166 O.2     1  UNL1       -0.1528
     25 O          63.7580   88.7039   12.2816 O.2     1  UNL1       -0.1528
     26 C          62.2572   89.2912   11.5777 C.ar    1  UNL1        0.1223
     27 C          61.1358   90.0958   10.9901 C.ar    1  UNL1        0.0208
     28 C          60.1095   89.4298   10.1224 C.ar    1  UNL1        0.0128
     29 C          60.2043   87.9593    9.8422 C.ar    1  UNL1        0.0578
     30 CL         59.1779   87.2933    8.9745 Cl      1  UNL1       -0.0822
     31 C          61.3257   87.1547   10.4298 C.ar    1  UNL1        0.0128
     32 C          62.3521   87.8206   11.2976 C.ar    1  UNL1        0.0208
     33 C          65.1413   92.0003   11.2729 C.3     1  UNL1        0.0203
     34 C          66.3436   92.5278   10.5474 C.3     1  UNL1        0.0015
     35 C          67.7542   92.3495   10.0696 C.3     1  UNL1        0.0000
     36 C          67.0153   93.6197    9.7686 C.3     1  UNL1        0.0000
@<TRIPOS>BOND
     1    11    12    1
     2    12    13    1
     3    13    14    1
     4    14    15    1
     5    15    16    1
     6    16    17    1
     7    17    18    1
     8    18    19   am
     9    19    20    2
    10    19    10    1
    11    10     7    1
    12     1     7    1
    13     1     2    1
    14     2     3    1
    15     3     4    1
    16     4     5    1
    17     5    33    1
    18    33    34    1
    19    34    35    1
    20    35    36    1
    21     5     6    1
    22     6    23    1
    23    23    24    2
    24    23    25    2
    25    23    26    1
    26    26    27   ar
    27    27    28   ar
    28    28    29   ar
    29    29    30    1
    30    29    31   ar
    31    31    32   ar
    32     7     8    1
    33     8     9    1
    34    18    21    1
    35    21    22    1
    36    15    12    1
    37     9     7    1
    38    22    15    1
    39     6     1    1
    40    32    26   ar
    41    36    34    1
@<TRIPOS>MOLECULE
*****
 36 41 0 0 0
SMALL
GASTEIGER

@<TRIPOS>ATOM
      1 C          63.9527   90.3379   14.7773 C.3     1  UNL1        0.1455
      2 C          63.1903   90.0904   16.0452 C.3     1  UNL1        0.1634
      3 O          63.4157   90.9692   17.2397 O.3     1  UNL1       -0.3507
      4 C          64.4035   92.0957   17.1663 C.3     1  UNL1        0.1598
      5 C          65.1659   92.3432   15.8985 C.3     1  UNL1        0.1093
      6 N          64.9405   91.4644   14.7040 N.3     1  UNL1       -0.1499
      7 C          63.7272   89.4590   13.5829 C.3     1  UNL1        0.1550
      8 C          62.8471   90.3550   12.7627 C.3     1  UNL1        0.0453
      9 C          63.2232   88.9973   12.2477 C.3     1  UNL1        0.0453
     10 O          64.5290   88.2578   13.9883 O.3     1  UNL1       -0.4403
     11 C          63.7843   82.7973   10.6651 C.3     1  UNL1        0.0896
     12 N          63.2515   82.3985   12.0093 N.3     1  UNL1       -0.2738
     13 C          62.6741   81.1422   12.5913 C.3     1  UNL1        0.0734
     14 C          62.4978   81.8344   13.9104 C.3     1  UNL1        0.0321
     15 C          63.0751   83.0906   13.3284 C.3     1  UNL1        0.0501
     16 C          63.6784   84.1248   12.4248 C.3     1  UNL1        0.0364
     17 C          63.9619   85.5025   12.9460 C.3     1  UNL1        0.0981
     18 N          63.6422   85.8459   14.3707 N.am    1  UNL1       -0.2459
     19 C          63.9257   87.2237   14.8919 C.2     1  UNL1        0.4047
     20 O          63.6060   87.5671   16.3166 O.2     1  UNL1       -0.2262
     21 C          63.0389   84.8118   15.2743 C.3     1  UNL1        0.0981
     22 C          62.7553   83.4340   14.7531 C.3     1  UNL1        0.0364
     23 S          65.7029   91.7119   13.4361 S.O2    1  UNL1        0.0635
     24 O          66.8079   90.8245   13.9274 O.2     1  UNL1       -0.1528
     25 O          64.9039   92.5407   12.7310 O.2     1  UNL1       -0.1528
     26 C          66.4653   91.9594   12.1682 C.ar    1  UNL1        0.1223
     27 C          65.7786   92.5842   10.9900 C.ar    1  UNL1        0.0208
     28 C          66.5411   92.8317    9.7222 C.ar    1  UNL1        0.0128
     29 C          67.9900   92.4545    9.6325 C.ar    1  UNL1        0.0578
     30 CL         68.7525   92.7020    8.3647 Cl      1  UNL1       -0.0822
     31 C          68.6766   91.8297   10.8107 C.ar    1  UNL1        0.0128
     32 C          67.9143   91.5821   12.0786 C.ar    1  UNL1        0.0208
     33 C          66.1537   93.4696   15.8250 C.3     1  UNL1        0.0203
     34 C          67.6199   93.1926   15.9789 C.3     1  UNL1        0.0015
     35 C          69.0424   93.6666   15.9409 C.3     1  UNL1        0.0000
     36 C          68.7367   92.2387   16.2836 C.3     1  UNL1        0.0000
@<TRIPOS>BOND
     1    11    12    1
     2    12    13    1
     3    13    14    1
     4    14    15    1
     5    15    16    1
     6    16    17    1
     7    17    18    1
     8    18    19   am
     9    19    20    2
    10    19    10    1
    11    10     7    1
    12     1     7    1
    13     1     2    1
    14     2     3    1
    15     3     4    1
    16     4     5    1
    17     5    33    1
    18    33    34    1
    19    34    35    1
    20    35    36    1
    21     5     6    1
    22     6    23    1
    23    23    24    2
    24    23    25    2
    25    23    26    1
    26    26    27   ar
    27    27    28   ar
    28    28    29   ar
    29    29    30    1
    30    29    31   ar
    31    31    32   ar
    32     7     8    1
    33     8     9    1
    34    18    21    1
    35    21    22    1
    36    15    12    1
    37     9     7    1
    38    22    15    1
    39     6     1    1
    40    32    26   ar
    41    36    34    1
@<TRIPOS>MOLECULE
*****
 36 41 0 0 0
SMALL
GASTEIGER

@<TRIPOS>ATOM
      1 C          63.4410   88.4742   13.0072 C.3     1  UNL1        0.1455
      2 C          64.2819   88.1435   14.2045 C.3     1  UNL1        0.1634
      3 O          64.5293   86.7112   14.5748 O.3     1  UNL1       -0.3507
      4 C          63.9359   85.6094   13.7477 C.3     1  UNL1        0.1598
      5 C          63.0950   85.9401   12.5504 C.3     1  UNL1        0.1093
      6 N          62.8475   87.3725   12.1802 N.3     1  UNL1       -0.1499
      7 C          63.1936   89.9066   12.6371 C.3     1  UNL1        0.1550
      8 C          61.6937   89.9176   12.6271 C.3     1  UNL1        0.0453
      9 C          62.4551   91.1701   12.3081 C.3     1  UNL1        0.0453
     10 O          64.6076   90.3930   12.5185 O.3     1  UNL1       -0.4403
     11 C          66.7162   94.4319    7.9734 C.3     1  UNL1        0.0896
     12 N          66.8784   95.2680    9.2082 N.3     1  UNL1       -0.2738
     13 C          67.3705   96.6563    9.4919 C.3     1  UNL1        0.0734
     14 C          67.1079   96.4505   10.9543 C.3     1  UNL1        0.0321
     15 C          66.6158   95.0623   10.6706 C.3     1  UNL1        0.0501
     16 C          66.2085   93.7745   10.0181 C.3     1  UNL1        0.0364
     17 C          65.6749   92.6473   10.8516 C.3     1  UNL1        0.0981
     18 N          65.5486   92.8079   12.3375 N.am    1  UNL1       -0.2459
     19 C          65.0149   91.6806   13.1711 C.2     1  UNL1        0.4047
     20 O          64.8887   91.8412   14.6571 O.2     1  UNL1       -0.2262
     21 C          65.9559   94.0956   12.9902 C.3     1  UNL1        0.0981
     22 C          66.4895   95.2228   12.1566 C.3     1  UNL1        0.0364
     23 S          62.0066   87.7032   10.9828 S.O2    1  UNL1        0.0635
     24 O          60.7707   87.3366   11.7496 O.2     1  UNL1       -0.1528
     25 O          62.9029   88.0954   10.0525 O.2     1  UNL1       -0.1528
     26 C          61.1657   88.0339    9.7856 C.ar    1  UNL1        0.1223
     27 C          60.9118   89.4664    9.4200 C.ar    1  UNL1        0.0208
     28 C          60.0709   89.7971    8.2228 C.ar    1  UNL1        0.0128
     29 C          59.4838   88.6955    7.3911 C.ar    1  UNL1        0.0578
     30 CL         58.6429   89.0261    6.1938 Cl      1  UNL1       -0.0822
     31 C          59.7378   87.2630    7.7567 C.ar    1  UNL1        0.0128
     32 C          60.5787   86.9322    8.9540 C.ar    1  UNL1        0.0208
     33 C          62.5015   84.8385   11.7233 C.3     1  UNL1        0.0203
     34 C          63.3841   83.7633   11.1618 C.3     1  UNL1        0.0015
     35 C          64.0471   83.1092    9.9861 C.3     1  UNL1        0.0000
     36 C          64.2497   82.5553   11.3652 C.3     1  UNL1        0.0000
@<TRIPOS>BOND
     1    11    12    1
     2    12    13    1
     3    13    14    1
     4    14    15    1
     5    15    16    1
     6    16    17    1
     7    17    18    1
     8    18    19   am
     9    19    20    2
    10    19    10    1
    11    10     7    1
    12     1     7    1
    13     1     2    1
    14     2     3    1
    15     3     4    1
    16     4     5    1
    17     5    33    1
    18    33    34    1
    19    34    35    1
    20    35    36    1
    21     5     6    1
    22     6    23    1
    23    23    24    2
    24    23    25    2
    25    23    26    1
    26    26    27   ar
    27    27    28   ar
    28    28    29   ar
    29    29    30    1
    30    29    31   ar
    31    31    32   ar
    32     7     8    1
    33     8     9    1
    34    18    21    1
    35    21    22    1
    36    15    12    1
    37     9     7    1
    38    22    15    1
    39     6     1    1
    40    32    26   ar
    41    36    34    1
@<TRIPOS>MOLECULE
*****
 36 41 0 0 0
SMALL
GASTEIGER

@<TRIPOS>ATOM
      1 C          63.5798   90.0582   13.2025 C.3     1  UNL1        0.1455
      2 C          62.4942   89.4592   12.3582 C.3     1  UNL1        0.1634
      3 O          62.3112   89.9118   10.9399 O.3     1  UNL1       -0.3507
      4 C          63.2137   90.9634   10.3658 C.3     1  UNL1        0.1598
      5 C          64.2993   91.5624   11.2100 C.3     1  UNL1        0.1093
      6 N          64.4823   91.1098   12.6284 N.3     1  UNL1       -0.1499
      7 C          63.7627   89.6055   14.6208 C.3     1  UNL1        0.1550
      8 C          63.3746   90.8597   15.3465 C.3     1  UNL1        0.0453
      9 C          63.7888   89.6431   16.1201 C.3     1  UNL1        0.0453
     10 O          64.2144   88.1943   14.3876 O.3     1  UNL1       -0.4403
     11 C          63.7633   82.9010   10.7553 C.3     1  UNL1        0.0896
     12 N          63.2451   82.4001   12.0707 N.3     1  UNL1       -0.2738
     13 C          62.7296   81.0852   12.5764 C.3     1  UNL1        0.0734
     14 C          62.5122   81.6915   13.9311 C.3     1  UNL1        0.0321
     15 C          63.0277   83.0062   13.4255 C.3     1  UNL1        0.0501
     16 C          63.5819   84.1193   12.5865 C.3     1  UNL1        0.0364
     17 C          63.7927   85.4776   13.1869 C.3     1  UNL1        0.0981
     18 N          63.4494   85.7229   14.6263 N.am    1  UNL1       -0.2459
     19 C          63.6602   87.0813   15.2267 C.2     1  UNL1        0.4047
     20 O          63.3168   87.3265   16.6661 O.2     1  UNL1       -0.2262
     21 C          62.8952   84.6099   15.4653 C.3     1  UNL1        0.0981
     22 C          62.6843   83.2515   14.8649 C.3     1  UNL1        0.0364
     23 S          65.5679   91.7088   13.4726 S.O2    1  UNL1        0.0635
     24 O          64.9845   93.0733   13.2545 O.2     1  UNL1       -0.1528
     25 O          66.3137   90.6476   13.8470 O.2     1  UNL1       -0.1528
     26 C          66.6534   92.3078   14.3169 C.ar    1  UNL1        0.1223
     27 C          66.8705   93.7921   14.3170 C.ar    1  UNL1        0.0208
     28 C          67.9560   94.3911   15.1612 C.ar    1  UNL1        0.0128
     29 C          68.8244   93.5061   16.0053 C.ar    1  UNL1        0.0578
     30 CL         69.9099   94.1052   16.8496 Cl      1  UNL1       -0.0822
     31 C          68.6072   92.0219   16.0052 C.ar    1  UNL1        0.0128
     32 C          67.5218   91.4227   15.1610 C.ar    1  UNL1        0.0208
     33 C          65.2018   92.6139   10.6360 C.3     1  UNL1        0.0203
     34 C          66.6538   92.3134   10.4086 C.3     1  UNL1        0.0015
     35 C          67.8135   92.1402    9.4733 C.3     1  UNL1        0.0000
     36 C          68.0088   91.9663   10.9503 C.3     1  UNL1        0.0000
@<TRIPOS>BOND
     1    11    12    1
     2    12    13    1
     3    13    14    1
     4    14    15    1
     5    15    16    1
     6    16    17    1
     7    17    18    1
     8    18    19   am
     9    19    20    2
    10    19    10    1
    11    10     7    1
    12     1     7    1
    13     1     2    1
    14     2     3    1
    15     3     4    1
    16     4     5    1
    17     5    33    1
    18    33    34    1
    19    34    35    1
    20    35    36    1
    21     5     6    1
    22     6    23    1
    23    23    24    2
    24    23    25    2
    25    23    26    1
    26    26    27   ar
    27    27    28   ar
    28    28    29   ar
    29    29    30    1
    30    29    31   ar
    31    31    32   ar
    32     7     8    1
    33     8     9    1
    34    18    21    1
    35    21    22    1
    36    15    12    1
    37     9     7    1
    38    22    15    1
    39     6     1    1
    40    32    26   ar
    41    36    34    1
@<TRIPOS>MOLECULE
*****
 36 41 0 0 0
SMALL
GASTEIGER

@<TRIPOS>ATOM
      1 C          63.2144   88.0294   12.8494 C.3     1  UNL1        0.1455
      2 C          64.0774   87.6213   14.0065 C.3     1  UNL1        0.1634
      3 O          64.3535   86.1690   14.2607 O.3     1  UNL1       -0.3507
      4 C          63.7667   85.1248   13.3578 C.3     1  UNL1        0.1598
      5 C          62.9037   85.5328   12.2008 C.3     1  UNL1        0.1093
      6 N          62.6276   86.9851   11.9466 N.3     1  UNL1       -0.1499
      7 C          62.9384   89.4817   12.5954 C.3     1  UNL1        0.1550
      8 C          63.6852   89.6673   11.3077 C.3     1  UNL1        0.0453
      9 C          62.9550   90.8233   11.9247 C.3     1  UNL1        0.0453
     10 O          62.0957   89.8004   13.7946 O.3     1  UNL1       -0.4403
     11 C          67.3154   93.3663   12.5880 C.3     1  UNL1        0.0896
     12 N          67.3496   93.2921   14.0858 N.3     1  UNL1       -0.2738
     13 C          68.2561   93.8285   15.1539 C.3     1  UNL1        0.0734
     14 C          67.3982   93.1872   16.2040 C.3     1  UNL1        0.0321
     15 C          66.4918   92.6508   15.1360 C.3     1  UNL1        0.0501
     16 C          65.8383   92.2986   13.8326 C.3     1  UNL1        0.0364
     17 C          64.5908   91.4659   13.8200 C.3     1  UNL1        0.0981
     18 N          63.9968   90.9853   15.1107 N.am    1  UNL1       -0.2459
     19 C          62.7491   90.1525   15.0981 C.2     1  UNL1        0.4047
     20 O          62.1551   89.6719   16.3889 O.2     1  UNL1       -0.2262
     21 C          64.6502   91.3374   16.4142 C.3     1  UNL1        0.0981
     22 C          65.8978   92.1703   16.4268 C.3     1  UNL1        0.0364
     23 S          61.7646   87.3932   10.7895 S.O2    1  UNL1        0.0635
     24 O          60.6009   87.5689   11.7195 O.2     1  UNL1       -0.1528
     25 O          62.5930   87.3287    9.7255 O.2     1  UNL1       -0.1528
     26 C          60.9016   87.8013    9.6325 C.ar    1  UNL1        0.1223
     27 C          60.1557   86.7615    8.8499 C.ar    1  UNL1        0.0208
     28 C          59.2927   87.1696    7.6929 C.ar    1  UNL1        0.0128
     29 C          59.1755   88.6173    7.3185 C.ar    1  UNL1        0.0578
     30 CL         58.3125   89.0254    6.1615 Cl      1  UNL1       -0.0822
     31 C          59.9215   89.6571    8.1012 C.ar    1  UNL1        0.0128
     32 C          60.7845   89.2491    9.2582 C.ar    1  UNL1        0.0208
     33 C          62.3168   84.4887   11.2979 C.3     1  UNL1        0.0203
     34 C          63.0246   83.1802   11.1050 C.3     1  UNL1        0.0015
     35 C          63.1424   81.7125   11.3911 C.3     1  UNL1        0.0000
     36 C          64.1327   82.3818   10.4848 C.3     1  UNL1        0.0000
@<TRIPOS>BOND
     1    11    12    1
     2    12    13    1
     3    13    14    1
     4    14    15    1
     5    15    16    1
     6    16    17    1
     7    17    18    1
     8    18    19   am
     9    19    20    2
    10    19    10    1
    11    10     7    1
    12     1     7    1
    13     1     2    1
    14     2     3    1
    15     3     4    1
    16     4     5    1
    17     5    33    1
    18    33    34    1
    19    34    35    1
    20    35    36    1
    21     5     6    1
    22     6    23    1
    23    23    24    2
    24    23    25    2
    25    23    26    1
    26    26    27   ar
    27    27    28   ar
    28    28    29   ar
    29    29    30    1
    30    29    31   ar
    31    31    32   ar
    32     7     8    1
    33     8     9    1
    34    18    21    1
    35    21    22    1
    36    15    12    1
    37     9     7    1
    38    22    15    1
    39     6     1    1
    40    32    26   ar
    41    36    34    1
@<TRIPOS>MOLECULE
*****
 36 41 0 0 0
SMALL
GASTEIGER

@<TRIPOS>ATOM
      1 C          62.0586   88.5039   11.2264 C.3     1  UNL1        0.1455
      2 C          61.7029   89.8277   10.6171 C.3     1  UNL1        0.1634
      3 O          60.9370   89.8786    9.3285 O.3     1  UNL1       -0.3507
      4 C          60.5266   88.6058    8.6491 C.3     1  UNL1        0.1598
      5 C          60.8823   87.2821    9.2583 C.3     1  UNL1        0.1093
      6 N          61.6483   87.2311   10.5470 N.3     1  UNL1       -0.1499
      7 C          62.8246   88.4531   12.5151 C.3     1  UNL1        0.1550
      8 C          63.7567   87.3156   12.2193 C.3     1  UNL1        0.0453
      9 C          63.8220   88.0133   13.5456 C.3     1  UNL1        0.0453
     10 O          62.1586   89.5729   13.2584 O.3     1  UNL1       -0.4403
     11 C          67.3845   93.2416   12.4537 C.3     1  UNL1        0.0896
     12 N          67.2696   93.2173   13.9491 N.3     1  UNL1       -0.2738
     13 C          68.0505   93.8133   15.0827 C.3     1  UNL1        0.0734
     14 C          67.1072   93.1829   16.0640 C.3     1  UNL1        0.0321
     15 C          66.3263   92.5870   14.9305 C.3     1  UNL1        0.0501
     16 C          65.8162   92.1744   13.5815 C.3     1  UNL1        0.0364
     17 C          64.5970   91.3072   13.4738 C.3     1  UNL1        0.0981
     18 N          63.8880   90.8526   14.7150 N.am    1  UNL1       -0.2459
     19 C          62.6687   89.9854   14.6073 C.2     1  UNL1        0.4047
     20 O          61.9597   89.5308   15.8484 O.2     1  UNL1       -0.2262
     21 C          64.3981   91.2651   16.0639 C.3     1  UNL1        0.0981
     22 C          65.6173   92.1323   16.1716 C.3     1  UNL1        0.0364
     23 S          62.0040   85.9074   11.1563 S.O2    1  UNL1        0.0635
     24 O          60.9214   86.0872   12.1789 O.2     1  UNL1       -0.1528
     25 O          63.0268   85.4621   10.3960 O.2     1  UNL1       -0.1528
     26 C          62.3596   84.5837   11.7657 C.ar    1  UNL1        0.1223
     27 C          62.3064   84.4047   13.2541 C.ar    1  UNL1        0.0208
     28 C          62.6620   83.0810   13.8634 C.ar    1  UNL1        0.0128
     29 C          63.0709   81.9363   12.9845 C.ar    1  UNL1        0.0578
     30 CL         63.4265   80.6126   13.5938 Cl      1  UNL1       -0.0822
     31 C          63.1241   82.1154   11.4962 C.ar    1  UNL1        0.0128
     32 C          62.7685   83.4390   10.8867 C.ar    1  UNL1        0.0208
     33 C          60.4720   86.0092    8.5790 C.3     1  UNL1        0.0203
     34 C          61.3856   85.3646    7.5790 C.3     1  UNL1        0.0015
     35 C          62.7592   84.9208    7.1715 C.3     1  UNL1        0.0000
     36 C          61.5943   84.6919    6.2547 C.3     1  UNL1        0.0000
@<TRIPOS>BOND
     1    11    12    1
     2    12    13    1
     3    13    14    1
     4    14    15    1
     5    15    16    1
     6    16    17    1
     7    17    18    1
     8    18    19   am
     9    19    20    2
    10    19    10    1
    11    10     7    1
    12     1     7    1
    13     1     2    1
    14     2     3    1
    15     3     4    1
    16     4     5    1
    17     5    33    1
    18    33    34    1
    19    34    35    1
    20    35    36    1
    21     5     6    1
    22     6    23    1
    23    23    24    2
    24    23    25    2
    25    23    26    1
    26    26    27   ar
    27    27    28   ar
    28    28    29   ar
    29    29    30    1
    30    29    31   ar
    31    31    32   ar
    32     7     8    1
    33     8     9    1
    34    18    21    1
    35    21    22    1
    36    15    12    1
    37     9     7    1
    38    22    15    1
    39     6     1    1
    40    32    26   ar
    41    36    34    1
@<TRIPOS>MOLECULE
*****
 36 41 0 0 0
SMALL
GASTEIGER

@<TRIPOS>ATOM
      1 C          63.2870   88.0756   13.0188 C.3     1  UNL1        0.1455
      2 C          64.1221   87.6468   14.1888 C.3     1  UNL1        0.1634
      3 O          64.4009   86.1909   14.4179 O.3     1  UNL1       -0.3507
      4 C          63.8445   85.1637   13.4770 C.3     1  UNL1        0.1598
      5 C          63.0095   85.5923   12.3070 C.3     1  UNL1        0.1093
      6 N          62.7307   87.0483   12.0779 N.3     1  UNL1       -0.1499
      7 C          63.0084   89.5315   12.7898 C.3     1  UNL1        0.1550
      8 C          61.7223   89.6730   13.5489 C.3     1  UNL1        0.0453
      9 C          62.3166   90.8611   12.8521 C.3     1  UNL1        0.0453
     10 O          64.1976   89.8957   11.9512 O.3     1  UNL1       -0.4403
     11 C          68.1720   91.5299   16.7418 C.3     1  UNL1        0.0896
     12 N          68.0842   92.8189   15.9798 N.3     1  UNL1       -0.2738
     13 C          68.6778   94.1874   16.1384 C.3     1  UNL1        0.0734
     14 C          67.9601   94.6419   14.9022 C.3     1  UNL1        0.0321
     15 C          67.3666   93.2736   14.7435 C.3     1  UNL1        0.0501
     16 C          66.9790   91.8341   14.9102 C.3     1  UNL1        0.0364
     17 C          66.0518   91.1880   13.9239 C.3     1  UNL1        0.0981
     18 N          65.5123   91.9813   12.7709 N.am    1  UNL1       -0.2459
     19 C          64.5851   91.3351   11.7844 C.2     1  UNL1        0.4047
     20 O          64.0455   92.1284   10.6314 O.2     1  UNL1       -0.2262
     21 C          65.8998   93.4207   12.6041 C.3     1  UNL1        0.0981
     22 C          66.8270   94.0669   13.5905 C.3     1  UNL1        0.0364
     23 S          61.8956   87.4771   10.9079 S.O2    1  UNL1        0.0635
     24 O          60.6530   87.2946   11.7280 O.2     1  UNL1       -0.1528
     25 O          62.7990   87.7299    9.9370 O.2     1  UNL1       -0.1528
     26 C          61.0605   87.9058    9.7380 C.ar    1  UNL1        0.1223
     27 C          60.4307   86.8753    8.8484 C.ar    1  UNL1        0.0208
     28 C          59.5956   87.3040    7.6785 C.ar    1  UNL1        0.0128
     29 C          59.3902   88.7632    7.3981 C.ar    1  UNL1        0.0578
     30 CL         58.5551   89.1919    6.2282 Cl      1  UNL1       -0.0822
     31 C          60.0201   89.7936    8.2878 C.ar    1  UNL1        0.0128
     32 C          60.8552   89.3650    9.4577 C.ar    1  UNL1        0.0208
     33 C          62.4531   84.5652   11.3661 C.3     1  UNL1        0.0203
     34 C          63.2311   83.3164   11.0737 C.3     1  UNL1        0.0015
     35 C          63.4890   81.8593   11.3189 C.3     1  UNL1        0.0000
     36 C          64.3205   82.6107   10.3220 C.3     1  UNL1        0.0000
@<TRIPOS>BOND
     1    11    12    1
     2    12    13    1
     3    13    14    1
     4    14    15    1
     5    15    16    1
     6    16    17    1
     7    17    18    1
     8    18    19   am
     9    19    20    2
    10    19    10    1
    11    10     7    1
    12     1     7    1
    13     1     2    1
    14     2     3    1
    15     3     4    1
    16     4     5    1
    17     5    33    1
    18    33    34    1
    19    34    35    1
    20    35    36    1
    21     5     6    1
    22     6    23    1
    23    23    24    2
    24    23    25    2
    25    23    26    1
    26    26    27   ar
    27    27    28   ar
    28    28    29   ar
    29    29    30    1
    30    29    31   ar
    31    31    32   ar
    32     7     8    1
    33     8     9    1
    34    18    21    1
    35    21    22    1
    36    15    12    1
    37     9     7    1
    38    22    15    1
    39     6     1    1
    40    32    26   ar
    41    36    34    1
