@<TRIPOS>MOLECULE
*****
 38 43 0 0 0
SMALL
GASTEIGER

@<TRIPOS>ATOM
      1 C          64.2035   88.6102   14.5640 C.ar    1  UNL1        0.0392
      2 C          64.8813   87.5895   15.4294 C.ar    1  UNL1        0.1004
      3 N          64.8539   86.1407   15.0419 N.ar    1  UNL1       -0.2423
      4 C          64.1487   85.7126   13.7892 C.ar    1  UNL1        0.0984
      5 C          63.9559   84.3664   13.1560 C.ar    1  UNL1        0.0348
      6 C          64.4030   82.9933   13.5613 C.ar    1  UNL1        0.0027
      7 C          64.0532   81.8088   12.7100 C.ar    1  UNL1       -0.0019
      8 C          63.2563   81.9976   11.4534 C.ar    1  UNL1        0.0031
      9 C          62.8092   83.3709   11.0480 C.ar    1  UNL1        0.0152
     10 C          63.1590   84.5552   11.8993 C.ar    1  UNL1        0.0613
     11 N          62.8593   86.0180   11.7558 N.ar    1  UNL1       -0.3240
     12 C          63.4709   86.7332   12.9238 C.ar    1  UNL1        0.0781
     13 C          63.4983   88.1820   13.3113 C.ar    1  UNL1        0.0218
     14 C          65.4619   91.0458   12.7936 C.3     1  UNL1        0.0557
     15 C          64.8093   91.1786   14.1377 C.ar    1  UNL1        0.0998
     16 N          64.6206   92.4542   14.9039 N.ar    1  UNL1       -0.1332
     17 N          63.9255   92.1231   16.1913 N.ar    1  UNL1       -0.0641
     18 N          63.6847   90.6428   16.2207 N.ar    1  UNL1       -0.2300
     19 C          63.0152   89.8802   17.3253 C.3     1  UNL1        0.1555
     20 C          64.2309   90.0591   14.9514 C.ar    1  UNL1        0.0963
     21 C          62.9065   80.8131   10.6020 C.3     1  UNL1        0.1072
     22 C          63.2342   81.6024    9.3692 C.3     1  UNL1        0.0339
     23 C          62.5788   80.0239   11.8347 C.3     1  UNL1        0.0339
     24 O          62.5567   79.6287    9.7507 O.3     1  UNL1       -0.3827
     25 H          62.6811   79.8545    8.8156 H       1  UNL1        0.2107
     26 C          62.0840   86.6538   10.6402 C.3     1  UNL1        0.1080
     27 C          61.9993   85.9766    9.3046 C.ar    1  UNL1       -0.0018
     28 C          60.6916   85.9242    8.5716 C.ar    1  UNL1       -0.0025
     29 C          60.6070   85.2469    7.2359 C.ar    1  UNL1       -0.0003
     30 C          61.8302   84.6219    6.6331 C.ar    1  UNL1       -0.0000
     31 C          63.1379   84.6743    7.3660 C.ar    1  UNL1       -0.0003
     32 C          63.2224   85.3515    8.7017 C.ar    1  UNL1       -0.0025
     33 C          61.3933   87.9671   10.8603 C.3     1  UNL1        0.0300
     34 C          60.1280   88.0236   11.6640 C.3     1  UNL1        0.0344
     35 C          59.4374   89.3368   11.8841 C.3     1  UNL1        0.1422
     36 O          60.0119   90.5935   11.3004 O.3     1  UNL1       -0.3538
     37 C          61.2771   90.5369   10.4967 C.3     1  UNL1        0.1422
     38 C          61.9678   89.2237   10.2766 C.3     1  UNL1        0.0344
@<TRIPOS>BOND
     1    14    15    1
     2    15    16   ar
     3    16    17   ar
     4    17    18   ar
     5    18    19    1
     6    18    20   ar
     7    20     1    1
     8     1     2   ar
     9     2     3   ar
    10     3     4   ar
    11     4     5   ar
    12     5     6   ar
    13     6     7   ar
    14     7     8   ar
    15     8    21    1
    16    21    22    1
    17    21    23    1
    18    21    24    1
    19     8     9   ar
    20     9    10   ar
    21    10    11   ar
    22    11    26    1
    23    26    27    1
    24    27    28   ar
    25    28    29   ar
    26    29    30   ar
    27    30    31   ar
    28    31    32   ar
    29    26    33    1
    30    33    34    1
    31    34    35    1
    32    35    36    1
    33    36    37    1
    34    37    38    1
    35    11    12   ar
    36    12    13   ar
    37    20    15   ar
    38    13     1   ar
    39    12     4   ar
    40    10     5   ar
    41    32    27   ar
    42    38    33    1
    43    24    25    1
@<TRIPOS>MOLECULE
*****
 38 43 0 0 0
SMALL
GASTEIGER

@<TRIPOS>ATOM
      1 C          64.9151   90.1445   13.7087 C.ar    1  UNL1        0.0392
      2 C          65.5903   89.4060   14.8260 C.ar    1  UNL1        0.1004
      3 N          65.3311   87.9416   15.0215 N.ar    1  UNL1       -0.2423
      4 C          64.3966   87.2157   14.0996 C.ar    1  UNL1        0.0984
      5 C          63.9498   85.7848   14.0460 C.ar    1  UNL1        0.0348
      6 C          64.2863   84.5957   14.8962 C.ar    1  UNL1        0.0027
      7 C          63.6714   83.2609   14.5959 C.ar    1  UNL1       -0.0019
      8 C          62.7201   83.1152   13.4454 C.ar    1  UNL1        0.0031
      9 C          62.3836   84.3043   12.5952 C.ar    1  UNL1        0.0152
     10 C          62.9984   85.6390   12.8956 C.ar    1  UNL1        0.0613
     11 N          62.8572   86.9799   12.2381 N.ar    1  UNL1       -0.3240
     12 C          63.7214   87.9543   12.9822 C.ar    1  UNL1        0.0781
     13 C          63.9806   89.4187   12.7868 C.ar    1  UNL1        0.0218
     14 C          64.5208   91.8081   10.9290 C.3     1  UNL1        0.0557
     15 C          64.9931   92.3736   12.2355 C.ar    1  UNL1        0.0998
     16 N          65.3671   93.8031   12.4937 N.ar    1  UNL1       -0.1332
     17 N          65.7795   93.9220   13.9311 N.ar    1  UNL1       -0.0641
     18 N          65.6604   92.5660   14.5611 N.ar    1  UNL1       -0.2300
     19 C          65.9725   92.2265   15.9884 C.3     1  UNL1        0.1555
     20 C          65.1744   91.6090   13.5132 C.ar    1  UNL1        0.0963
     21 C          62.1052   81.7803   13.1451 C.3     1  UNL1        0.1072
     22 C          62.6682   81.8335   11.7558 C.3     1  UNL1        0.0339
     23 C          61.5422   81.7271   14.5344 C.3     1  UNL1        0.0339
     24 O          61.4903   80.4455   12.8448 O.3     1  UNL1       -0.3827
     25 H          61.7010   80.1902   11.9330 H       1  UNL1        0.2107
     26 C          62.0021   87.2916   11.0458 C.3     1  UNL1        0.1080
     27 C          62.0847   86.4332    9.8185 C.ar    1  UNL1       -0.0018
     28 C          61.0198   86.5248    8.7661 C.ar    1  UNL1       -0.0025
     29 C          61.1025   85.6662    7.5387 C.ar    1  UNL1       -0.0003
     30 C          62.2500   84.7162    7.3639 C.ar    1  UNL1       -0.0000
     31 C          63.3149   84.6246    8.4164 C.ar    1  UNL1       -0.0003
     32 C          63.2322   85.4830    9.6436 C.ar    1  UNL1       -0.0025
     33 C          61.0643   88.4617   11.0808 C.3     1  UNL1        0.0300
     34 C          59.8232   88.4034   11.9212 C.3     1  UNL1        0.0344
     35 C          58.8854   89.5736   11.9561 C.3     1  UNL1        0.1422
     36 O          59.1887   90.8021   11.1507 O.3     1  UNL1       -0.3538
     37 C          60.4298   90.8604   10.3103 C.3     1  UNL1        0.1422
     38 C          61.3676   89.6903   10.2753 C.3     1  UNL1        0.0344
@<TRIPOS>BOND
     1    14    15    1
     2    15    16   ar
     3    16    17   ar
     4    17    18   ar
     5    18    19    1
     6    18    20   ar
     7    20     1    1
     8     1     2   ar
     9     2     3   ar
    10     3     4   ar
    11     4     5   ar
    12     5     6   ar
    13     6     7   ar
    14     7     8   ar
    15     8    21    1
    16    21    22    1
    17    21    23    1
    18    21    24    1
    19     8     9   ar
    20     9    10   ar
    21    10    11   ar
    22    11    26    1
    23    26    27    1
    24    27    28   ar
    25    28    29   ar
    26    29    30   ar
    27    30    31   ar
    28    31    32   ar
    29    26    33    1
    30    33    34    1
    31    34    35    1
    32    35    36    1
    33    36    37    1
    34    37    38    1
    35    11    12   ar
    36    12    13   ar
    37    20    15   ar
    38    13     1   ar
    39    12     4   ar
    40    10     5   ar
    41    32    27   ar
    42    38    33    1
    43    24    25    1
@<TRIPOS>MOLECULE
*****
 38 43 0 0 0
SMALL
GASTEIGER

@<TRIPOS>ATOM
      1 C          64.2097   88.6106   14.5548 C.ar    1  UNL1        0.0392
      2 C          64.8938   87.5924   15.4179 C.ar    1  UNL1        0.1004
      3 N          64.8670   86.1430   15.0326 N.ar    1  UNL1       -0.2423
      4 C          64.1561   85.7119   13.7840 C.ar    1  UNL1        0.0984
      5 C          63.9625   84.3646   13.1536 C.ar    1  UNL1        0.0348
      6 C          64.4142   82.9928   13.5584 C.ar    1  UNL1        0.0027
      7 C          64.0621   81.8066   12.7105 C.ar    1  UNL1       -0.0019
      8 C          63.2583   81.9923   11.4578 C.ar    1  UNL1        0.0031
      9 C          62.8066   83.3642   11.0529 C.ar    1  UNL1        0.0152
     10 C          63.1587   84.5503   11.9009 C.ar    1  UNL1        0.0613
     11 N          62.8556   86.0123   11.7571 N.ar    1  UNL1       -0.3240
     12 C          63.4720   86.7302   12.9209 C.ar    1  UNL1        0.0781
     13 C          63.4988   88.1796   13.3063 C.ar    1  UNL1        0.0218
     14 C          65.4444   91.0477   12.7698 C.3     1  UNL1        0.0557
     15 C          64.8040   91.1802   14.1197 C.ar    1  UNL1        0.0998
     16 N          64.6187   92.4562   14.8861 N.ar    1  UNL1       -0.1332
     17 N          63.9367   92.1248   16.1804 N.ar    1  UNL1       -0.0641
     18 N          63.7005   90.6439   16.2137 N.ar    1  UNL1       -0.2300
     19 C          63.0435   89.8807   17.3255 C.3     1  UNL1        0.1555
     20 C          64.2365   90.0601   14.9402 C.ar    1  UNL1        0.0963
     21 C          62.9062   80.8061   10.6098 C.3     1  UNL1        0.1072
     22 C          63.2432   81.5885    9.3752 C.3     1  UNL1        0.0339
     23 C          62.5692   80.0236   11.8444 C.3     1  UNL1        0.0339
     24 O          62.5541   79.6199    9.7619 O.3     1  UNL1       -0.3827
     25 H          62.6837   79.8412    8.8264 H       1  UNL1        0.2107
     26 C          62.0733   86.6453   10.6447 C.3     1  UNL1        0.1080
     27 C          61.3671   87.9490   10.8717 C.ar    1  UNL1       -0.0018
     28 C          60.0983   87.9855   11.6709 C.ar    1  UNL1       -0.0025
     29 C          59.3921   89.2893   11.8979 C.ar    1  UNL1       -0.0003
     30 C          59.9548   90.5566   11.3258 C.ar    1  UNL1       -0.0000
     31 C          61.2237   90.5201   10.5267 C.ar    1  UNL1       -0.0003
     32 C          61.9298   89.2164   10.2997 C.ar    1  UNL1       -0.0025
     33 C          61.9972   85.9746    9.3051 C.3     1  UNL1        0.0300
     34 C          63.2254   85.3575    8.7046 C.3     1  UNL1        0.0344
     35 C          63.1493   84.6867    7.3650 C.3     1  UNL1        0.1422
     36 O          61.8451   84.6331    6.6261 O.3     1  UNL1       -0.3538
     37 C          60.6169   85.2503    7.2267 C.3     1  UNL1        0.1422
     38 C          60.6930   85.9210    8.5662 C.3     1  UNL1        0.0344
@<TRIPOS>BOND
     1    14    15    1
     2    15    16   ar
     3    16    17   ar
     4    17    18   ar
     5    18    19    1
     6    18    20   ar
     7    20     1    1
     8     1     2   ar
     9     2     3   ar
    10     3     4   ar
    11     4     5   ar
    12     5     6   ar
    13     6     7   ar
    14     7     8   ar
    15     8    21    1
    16    21    22    1
    17    21    23    1
    18    21    24    1
    19     8     9   ar
    20     9    10   ar
    21    10    11   ar
    22    11    26    1
    23    26    27    1
    24    27    28   ar
    25    28    29   ar
    26    29    30   ar
    27    30    31   ar
    28    31    32   ar
    29    26    33    1
    30    33    34    1
    31    34    35    1
    32    35    36    1
    33    36    37    1
    34    37    38    1
    35    11    12   ar
    36    12    13   ar
    37    20    15   ar
    38    13     1   ar
    39    12     4   ar
    40    10     5   ar
    41    32    27   ar
    42    38    33    1
    43    24    25    1
@<TRIPOS>MOLECULE
*****
 38 43 0 0 0
SMALL
GASTEIGER

@<TRIPOS>ATOM
      1 C          65.6644   91.5694   13.7670 C.ar    1  UNL1        0.0392
      2 C          65.2989   92.4684   12.6232 C.ar    1  UNL1        0.1004
      3 N          64.3303   91.9974   11.5791 N.ar    1  UNL1       -0.2423
      4 C          63.7274   90.6276   11.6788 C.ar    1  UNL1        0.0984
      5 C          62.7515   89.8946   10.8067 C.ar    1  UNL1        0.0348
      6 C          62.0485   90.2836    9.5401 C.ar    1  UNL1        0.0027
      7 C          61.1080   89.3206    8.8782 C.ar    1  UNL1       -0.0019
      8 C          60.8705   87.9687    9.4830 C.ar    1  UNL1        0.0031
      9 C          61.5735   87.5797   10.7497 C.ar    1  UNL1        0.0152
     10 C          62.5140   88.5427   11.4115 C.ar    1  UNL1        0.0613
     11 N          63.3430   88.4401   12.6574 N.ar    1  UNL1       -0.3240
     12 C          64.0930   89.7286   12.8225 C.ar    1  UNL1        0.0781
     13 C          65.0615   90.1995   13.8666 C.ar    1  UNL1        0.0218
     14 C          68.8951   91.8486   13.4001 C.3     1  UNL1        0.0557
     15 C          68.1179   92.1686   14.6425 C.ar    1  UNL1        0.0998
     16 N          68.6893   92.6732   15.9344 N.ar    1  UNL1       -0.1332
     17 N          67.5574   92.8567   16.9015 N.ar    1  UNL1       -0.0641
     18 N          66.2866   92.4655   16.2073 N.ar    1  UNL1       -0.2300
     19 C          64.9109   92.4945   16.8044 C.3     1  UNL1        0.1555
     20 C          66.6330   92.0403   14.8111 C.ar    1  UNL1        0.0963
     21 C          59.9299   87.0057    8.8211 C.3     1  UNL1        0.1072
     22 C          60.8673   85.8766    9.1317 C.3     1  UNL1        0.0339
     23 C          58.9925   88.1347    8.5105 C.3     1  UNL1        0.0339
     24 O          58.9893   86.0427    8.1593 O.3     1  UNL1       -0.3827
     25 H          59.3581   85.1468    8.2060 H       1  UNL1        0.2107
     26 C          63.4104   87.2567   13.5766 C.3     1  UNL1        0.1080
     27 C          63.6029   85.8798   13.0139 C.ar    1  UNL1       -0.0018
     28 C          62.7236   85.3953   11.8994 C.ar    1  UNL1       -0.0025
     29 C          62.9162   84.0182   11.3366 C.ar    1  UNL1       -0.0003
     30 C          63.9881   83.1256   11.8883 C.ar    1  UNL1       -0.0000
     31 C          64.8674   83.6101   13.0028 C.ar    1  UNL1       -0.0003
     32 C          64.6748   84.9871   13.5656 C.ar    1  UNL1       -0.0025
     33 C          63.2852   87.4504   15.0588 C.3     1  UNL1        0.0300
     34 C          63.2433   88.8353   15.6334 C.3     1  UNL1        0.0344
     35 C          63.1181   89.0289   17.1156 C.3     1  UNL1        0.1422
     36 O          63.0348   87.8376   18.0232 O.3     1  UNL1       -0.3538
     37 C          63.0767   86.4526   17.4486 C.3     1  UNL1        0.1422
     38 C          63.2019   86.2590   15.9664 C.3     1  UNL1        0.0344
@<TRIPOS>BOND
     1    14    15    1
     2    15    16   ar
     3    16    17   ar
     4    17    18   ar
     5    18    19    1
     6    18    20   ar
     7    20     1    1
     8     1     2   ar
     9     2     3   ar
    10     3     4   ar
    11     4     5   ar
    12     5     6   ar
    13     6     7   ar
    14     7     8   ar
    15     8    21    1
    16    21    22    1
    17    21    23    1
    18    21    24    1
    19     8     9   ar
    20     9    10   ar
    21    10    11   ar
    22    11    26    1
    23    26    27    1
    24    27    28   ar
    25    28    29   ar
    26    29    30   ar
    27    30    31   ar
    28    31    32   ar
    29    26    33    1
    30    33    34    1
    31    34    35    1
    32    35    36    1
    33    36    37    1
    34    37    38    1
    35    11    12   ar
    36    12    13   ar
    37    20    15   ar
    38    13     1   ar
    39    12     4   ar
    40    10     5   ar
    41    32    27   ar
    42    38    33    1
    43    24    25    1
@<TRIPOS>MOLECULE
*****
 38 43 0 0 0
SMALL
GASTEIGER

@<TRIPOS>ATOM
      1 C          64.9318   90.1275   13.7241 C.ar    1  UNL1        0.0392
      2 C          65.6326   89.3838   14.8221 C.ar    1  UNL1        0.1004
      3 N          65.3766   87.9188   15.0177 N.ar    1  UNL1       -0.2423
      4 C          64.4198   87.1976   14.1152 C.ar    1  UNL1        0.0984
      5 C          63.9705   85.7672   14.0664 C.ar    1  UNL1        0.0348
      6 C          64.3259   84.5745   14.9035 C.ar    1  UNL1        0.0027
      7 C          63.7028   83.2414   14.6125 C.ar    1  UNL1       -0.0019
      8 C          62.7243   83.1012   13.4842 C.ar    1  UNL1        0.0031
      9 C          62.3689   84.2941   12.6471 C.ar    1  UNL1        0.0152
     10 C          62.9920   85.6271   12.9382 C.ar    1  UNL1        0.0613
     11 N          62.8366   86.9707   12.2897 N.ar    1  UNL1       -0.3240
     12 C          63.7191   87.9413   13.0172 C.ar    1  UNL1        0.0781
     13 C          63.9751   89.4063   12.8216 C.ar    1  UNL1        0.0218
     14 C          64.5136   91.7943   10.9497 C.3     1  UNL1        0.0557
     15 C          64.9956   92.3586   12.2533 C.ar    1  UNL1        0.0998
     16 N          65.3699   93.7882   12.5104 N.ar    1  UNL1       -0.1332
     17 N          65.7935   93.9057   13.9446 N.ar    1  UNL1       -0.0641
     18 N          65.6810   92.5487   14.5737 N.ar    1  UNL1       -0.2300
     19 C          66.0048   92.2077   15.9981 C.3     1  UNL1        0.1555
     20 C          65.1878   91.5926   13.5284 C.ar    1  UNL1        0.0963
     21 C          62.1012   81.7681   13.1931 C.3     1  UNL1        0.1072
     22 C          62.6443   81.8194   11.7958 C.3     1  UNL1        0.0339
     23 C          61.5581   81.7169   14.5904 C.3     1  UNL1        0.0339
     24 O          61.4781   80.4351   12.9020 O.3     1  UNL1       -0.3827
     25 H          61.6748   80.1790   11.9874 H       1  UNL1        0.2107
     26 C          61.9538   87.2880   11.1193 C.3     1  UNL1        0.1080
     27 C          60.9976   88.4414   11.1921 C.ar    1  UNL1       -0.0018
     28 C          61.2936   89.7093   10.4474 C.ar    1  UNL1       -0.0025
     29 C          60.3373   90.8627   10.5201 C.ar    1  UNL1       -0.0003
     30 C          59.0848   90.7480   11.3376 C.ar    1  UNL1       -0.0000
     31 C          58.7887   89.4801   12.0824 C.ar    1  UNL1       -0.0003
     32 C          59.7451   88.3268   12.0096 C.ar    1  UNL1       -0.0025
     33 C          62.0272   86.4520    9.8761 C.3     1  UNL1        0.0300
     34 C          63.1777   85.5115    9.6716 C.3     1  UNL1        0.0344
     35 C          63.2511   84.6755    8.4283 C.3     1  UNL1        0.1422
     36 O          62.1741   84.7799    7.3896 O.3     1  UNL1       -0.3538
     37 C          61.0236   85.7204    7.5941 C.3     1  UNL1        0.1422
     38 C          60.9502   86.5565    8.8373 C.3     1  UNL1        0.0344
@<TRIPOS>BOND
     1    14    15    1
     2    15    16   ar
     3    16    17   ar
     4    17    18   ar
     5    18    19    1
     6    18    20   ar
     7    20     1    1
     8     1     2   ar
     9     2     3   ar
    10     3     4   ar
    11     4     5   ar
    12     5     6   ar
    13     6     7   ar
    14     7     8   ar
    15     8    21    1
    16    21    22    1
    17    21    23    1
    18    21    24    1
    19     8     9   ar
    20     9    10   ar
    21    10    11   ar
    22    11    26    1
    23    26    27    1
    24    27    28   ar
    25    28    29   ar
    26    29    30   ar
    27    30    31   ar
    28    31    32   ar
    29    26    33    1
    30    33    34    1
    31    34    35    1
    32    35    36    1
    33    36    37    1
    34    37    38    1
    35    11    12   ar
    36    12    13   ar
    37    20    15   ar
    38    13     1   ar
    39    12     4   ar
    40    10     5   ar
    41    32    27   ar
    42    38    33    1
    43    24    25    1
@<TRIPOS>MOLECULE
*****
 38 43 0 0 0
SMALL
GASTEIGER

@<TRIPOS>ATOM
      1 C          63.1608   82.8760   12.8264 C.ar    1  UNL1        0.0392
      2 C          64.0521   83.0229   14.0239 C.ar    1  UNL1        0.1004
      3 N          64.4759   84.3874   14.4805 N.ar    1  UNL1       -0.2423
      4 C          64.0084   85.6050   13.7396 C.ar    1  UNL1        0.0984
      5 C          64.2598   87.0683   13.9536 C.ar    1  UNL1        0.0348
      6 C          65.0638   87.8088   14.9808 C.ar    1  UNL1        0.0027
      7 C          65.1319   89.3068   14.9428 C.ar    1  UNL1       -0.0019
      8 C          64.3959   90.0642   13.8775 C.ar    1  UNL1        0.0031
      9 C          63.5919   89.3236   12.8503 C.ar    1  UNL1        0.0152
     10 C          63.5239   87.8257   12.8884 C.ar    1  UNL1        0.0613
     11 N          62.8176   86.8305   12.0161 N.ar    1  UNL1       -0.3240
     12 C          63.1171   85.4581   12.5421 C.ar    1  UNL1        0.0781
     13 C          62.6933   84.0936   12.0855 C.ar    1  UNL1        0.0218
     14 C          63.9071   81.4926    9.9665 C.3     1  UNL1        0.0557
     15 C          63.0800   80.8756   11.0552 C.ar    1  UNL1        0.0998
     16 N          62.4508   79.5144   11.0205 N.ar    1  UNL1       -0.1332
     17 N          61.7188   79.3090   12.3137 N.ar    1  UNL1       -0.0641
     18 N          61.8958   80.5433   13.1475 N.ar    1  UNL1       -0.2300
     19 C          61.3306   80.7696   14.5184 C.3     1  UNL1        0.1555
     20 C          62.7370   81.5115   12.3697 C.ar    1  UNL1        0.0963
     21 C          64.4640   91.5622   13.8395 C.3     1  UNL1        0.1072
     22 C          63.9075   91.5521   12.4466 C.3     1  UNL1        0.0339
     23 C          65.0204   91.5723   15.2324 C.3     1  UNL1        0.0339
     24 O          64.5320   93.0602   13.8015 O.3     1  UNL1       -0.3827
     25 H          64.2074   93.3769   12.9440 H       1  UNL1        0.2107
     26 C          61.9621   87.1515   10.8265 C.3     1  UNL1        0.1080
     27 C          62.0345   86.2946    9.5975 C.ar    1  UNL1       -0.0018
     28 C          60.8382   86.1651    8.7019 C.ar    1  UNL1       -0.0025
     29 C          60.9107   85.3081    7.4728 C.ar    1  UNL1       -0.0003
     30 C          62.1795   84.5807    7.1394 C.ar    1  UNL1       -0.0000
     31 C          63.3757   84.7103    8.0350 C.ar    1  UNL1       -0.0003
     32 C          63.3033   85.5672    9.2640 C.ar    1  UNL1       -0.0025
     33 C          61.0342   88.3293   10.8659 C.3     1  UNL1        0.0300
     34 C          60.0331   88.4587   11.9754 C.3     1  UNL1        0.0344
     35 C          59.1052   89.6365   12.0148 C.3     1  UNL1        0.1422
     36 O          59.1783   90.6851   10.9447 O.3     1  UNL1       -0.3538
     37 C          60.1793   90.5557    9.8351 C.3     1  UNL1        0.1422
     38 C          61.1073   89.3779    9.7957 C.3     1  UNL1        0.0344
@<TRIPOS>BOND
     1    14    15    1
     2    15    16   ar
     3    16    17   ar
     4    17    18   ar
     5    18    19    1
     6    18    20   ar
     7    20     1    1
     8     1     2   ar
     9     2     3   ar
    10     3     4   ar
    11     4     5   ar
    12     5     6   ar
    13     6     7   ar
    14     7     8   ar
    15     8    21    1
    16    21    22    1
    17    21    23    1
    18    21    24    1
    19     8     9   ar
    20     9    10   ar
    21    10    11   ar
    22    11    26    1
    23    26    27    1
    24    27    28   ar
    25    28    29   ar
    26    29    30   ar
    27    30    31   ar
    28    31    32   ar
    29    26    33    1
    30    33    34    1
    31    34    35    1
    32    35    36    1
    33    36    37    1
    34    37    38    1
    35    11    12   ar
    36    12    13   ar
    37    20    15   ar
    38    13     1   ar
    39    12     4   ar
    40    10     5   ar
    41    32    27   ar
    42    38    33    1
    43    24    25    1
@<TRIPOS>MOLECULE
*****
 38 43 0 0 0
SMALL
GASTEIGER

@<TRIPOS>ATOM
      1 C          63.2170   82.9282   12.8600 C.ar    1  UNL1        0.0392
      2 C          64.1674   83.0630   14.0126 C.ar    1  UNL1        0.1004
      3 N          64.6115   84.4230   14.4633 N.ar    1  UNL1       -0.2423
      4 C          64.1053   85.6481   13.7614 C.ar    1  UNL1        0.0984
      5 C          64.3650   87.1093   13.9796 C.ar    1  UNL1        0.0348
      6 C          65.2186   87.8395   14.9735 C.ar    1  UNL1        0.0027
      7 C          65.2823   89.3380   14.9498 C.ar    1  UNL1       -0.0019
      8 C          64.4924   90.1062   13.9320 C.ar    1  UNL1        0.0031
      9 C          63.6387   89.3759   12.9380 C.ar    1  UNL1        0.0152
     10 C          63.5750   87.8775   12.9619 C.ar    1  UNL1        0.0613
     11 N          62.8272   86.8911   12.1146 N.ar    1  UNL1       -0.3240
     12 C          63.1549   85.5133   12.6087 C.ar    1  UNL1        0.0781
     13 C          62.7108   84.1533   12.1581 C.ar    1  UNL1        0.0218
     14 C          63.9440   81.5205   10.0070 C.3     1  UNL1        0.0557
     15 C          63.1070   80.9211   11.0979 C.ar    1  UNL1        0.0998
     16 N          62.4571   79.5695   11.0690 N.ar    1  UNL1       -0.1332
     17 N          61.7213   79.3812   12.3626 N.ar    1  UNL1       -0.0641
     18 N          61.9164   80.6164   13.1909 N.ar    1  UNL1       -0.2300
     19 C          61.3539   80.8575   14.5603 C.3     1  UNL1        0.1555
     20 C          62.7728   81.5681   12.4093 C.ar    1  UNL1        0.0963
     21 C          64.5561   91.6047   13.9082 C.3     1  UNL1        0.1072
     22 C          64.9907   91.6091   15.3439 C.3     1  UNL1        0.0339
     23 C          64.1214   91.6003   12.4726 C.3     1  UNL1        0.0339
     24 O          64.6197   93.1032   13.8844 O.3     1  UNL1       -0.3827
     25 H          64.8984   93.4288   14.7545 H       1  UNL1        0.2107
     26 C          61.9122   87.2241   10.9736 C.3     1  UNL1        0.1080
     27 C          60.9585   88.3760   11.0885 C.ar    1  UNL1       -0.0018
     28 C          59.7672   88.2760   11.9945 C.ar    1  UNL1       -0.0025
     29 C          58.8134   89.4281   12.1094 C.ar    1  UNL1       -0.0003
     30 C          59.0509   90.6802   11.3183 C.ar    1  UNL1       -0.0000
     31 C          60.2422   90.7802   10.4123 C.ar    1  UNL1       -0.0003
     32 C          61.1960   89.6282   10.2974 C.ar    1  UNL1       -0.0025
     33 C          61.9510   86.4051    9.7175 C.3     1  UNL1        0.0300
     34 C          63.1971   85.6557    9.3490 C.3     1  UNL1        0.0344
     35 C          63.2359   84.8366    8.0929 C.3     1  UNL1        0.1422
     36 O          62.0286   84.7670    7.2054 O.3     1  UNL1       -0.3538
     37 C          60.7826   85.5163    7.5739 C.3     1  UNL1        0.1422
     38 C          60.7438   86.3354    8.8300 C.3     1  UNL1        0.0344
@<TRIPOS>BOND
     1    14    15    1
     2    15    16   ar
     3    16    17   ar
     4    17    18   ar
     5    18    19    1
     6    18    20   ar
     7    20     1    1
     8     1     2   ar
     9     2     3   ar
    10     3     4   ar
    11     4     5   ar
    12     5     6   ar
    13     6     7   ar
    14     7     8   ar
    15     8    21    1
    16    21    22    1
    17    21    23    1
    18    21    24    1
    19     8     9   ar
    20     9    10   ar
    21    10    11   ar
    22    11    26    1
    23    26    27    1
    24    27    28   ar
    25    28    29   ar
    26    29    30   ar
    27    30    31   ar
    28    31    32   ar
    29    26    33    1
    30    33    34    1
    31    34    35    1
    32    35    36    1
    33    36    37    1
    34    37    38    1
    35    11    12   ar
    36    12    13   ar
    37    20    15   ar
    38    13     1   ar
    39    12     4   ar
    40    10     5   ar
    41    32    27   ar
    42    38    33    1
    43    24    25    1
@<TRIPOS>MOLECULE
*****
 38 43 0 0 0
SMALL
GASTEIGER

@<TRIPOS>ATOM
      1 C          61.6978   88.1473    9.5238 C.ar    1  UNL1        0.0392
      2 C          61.9912   89.5223    9.0010 C.ar    1  UNL1        0.1004
      3 N          62.7936   90.4833    9.8270 N.ar    1  UNL1       -0.2423
      4 C          63.3027   90.0694   11.1759 C.ar    1  UNL1        0.0984
      5 C          64.1136   90.7948   12.2086 C.ar    1  UNL1        0.0348
      6 C          64.6895   92.1794   12.2417 C.ar    1  UNL1        0.0027
      7 C          65.4733   92.6373   13.4359 C.ar    1  UNL1       -0.0019
      8 C          65.6810   91.7106   14.5969 C.ar    1  UNL1        0.0031
      9 C          65.1050   90.3260   14.5638 C.ar    1  UNL1        0.0152
     10 C          64.3213   89.8681   13.3697 C.ar    1  UNL1        0.0613
     11 N          63.6388   88.5701   13.0546 N.ar    1  UNL1       -0.3240
     12 C          63.0093   88.6945   11.6987 C.ar    1  UNL1        0.0781
     13 C          62.2069   87.7334   10.8727 C.ar    1  UNL1        0.0218
     14 C          62.7104   85.2413    8.4379 C.3     1  UNL1        0.0557
     15 C          61.3608   85.8505    8.1986 C.ar    1  UNL1        0.0998
     16 N          60.2396   85.2309    7.4182 N.ar    1  UNL1       -0.1332
     17 N          59.0811   86.1837    7.4350 N.ar    1  UNL1       -0.0641
     18 N          59.4864   87.3922    8.2258 N.ar    1  UNL1       -0.2300
     19 C          58.6327   88.5953    8.4970 C.3     1  UNL1        0.1555
     20 C          60.8953   87.1862    8.6977 C.ar    1  UNL1        0.0963
     21 C          66.4648   92.1685   15.7912 C.3     1  UNL1        0.1072
     22 C          65.1886   92.3560   16.5569 C.3     1  UNL1        0.0339
     23 C          67.7409   91.9810   15.0255 C.3     1  UNL1        0.0339
     24 O          67.2486   92.6263   16.9854 O.3     1  UNL1       -0.3827
     25 H          66.6395   92.8394   17.7096 H       1  UNL1        0.2107
     26 C          63.5938   87.3600   13.9398 C.3     1  UNL1        0.1080
     27 C          63.7385   85.9903   13.3458 C.ar    1  UNL1       -0.0018
     28 C          62.7584   85.5120   12.3159 C.ar    1  UNL1       -0.0025
     29 C          62.9032   84.1422   11.7218 C.ar    1  UNL1       -0.0003
     30 C          64.0280   83.2507   12.1578 C.ar    1  UNL1       -0.0000
     31 C          65.0080   83.7289   13.1877 C.ar    1  UNL1       -0.0003
     32 C          64.8633   85.0987   13.7817 C.ar    1  UNL1       -0.0025
     33 C          63.4041   87.5196   15.4192 C.3     1  UNL1        0.0300
     34 C          63.2958   86.3078   16.2965 C.3     1  UNL1        0.0344
     35 C          63.1061   86.4674   17.7759 C.3     1  UNL1        0.1422
     36 O          63.0246   87.8389   18.3779 O.3     1  UNL1       -0.3538
     37 C          63.1328   89.0507   17.5006 C.3     1  UNL1        0.1422
     38 C          63.3226   88.8911   16.0212 C.3     1  UNL1        0.0344
@<TRIPOS>BOND
     1    14    15    1
     2    15    16   ar
     3    16    17   ar
     4    17    18   ar
     5    18    19    1
     6    18    20   ar
     7    20     1    1
     8     1     2   ar
     9     2     3   ar
    10     3     4   ar
    11     4     5   ar
    12     5     6   ar
    13     6     7   ar
    14     7     8   ar
    15     8    21    1
    16    21    22    1
    17    21    23    1
    18    21    24    1
    19     8     9   ar
    20     9    10   ar
    21    10    11   ar
    22    11    26    1
    23    26    27    1
    24    27    28   ar
    25    28    29   ar
    26    29    30   ar
    27    30    31   ar
    28    31    32   ar
    29    26    33    1
    30    33    34    1
    31    34    35    1
    32    35    36    1
    33    36    37    1
    34    37    38    1
    35    11    12   ar
    36    12    13   ar
    37    20    15   ar
    38    13     1   ar
    39    12     4   ar
    40    10     5   ar
    41    32    27   ar
    42    38    33    1
    43    24    25    1
@<TRIPOS>MOLECULE
*****
 38 43 0 0 0
SMALL
GASTEIGER

@<TRIPOS>ATOM
      1 C          61.7236   88.0485    9.4941 C.ar    1  UNL1        0.0392
      2 C          62.0026   89.4365    8.9985 C.ar    1  UNL1        0.1004
      3 N          62.7827   90.3940    9.8496 N.ar    1  UNL1       -0.2423
      4 C          63.2839   89.9636   11.1962 C.ar    1  UNL1        0.0984
      5 C          64.0737   90.6821   12.2499 C.ar    1  UNL1        0.0348
      6 C          64.6294   92.0738   12.3132 C.ar    1  UNL1        0.0027
      7 C          65.3943   92.5216   13.5234 C.ar    1  UNL1       -0.0019
      8 C          65.6034   91.5776   14.6701 C.ar    1  UNL1        0.0031
      9 C          65.0476   90.1858   14.6068 C.ar    1  UNL1        0.0152
     10 C          64.2828   89.7381   13.3967 C.ar    1  UNL1        0.0613
     11 N          63.6222   88.4362   13.0518 N.ar    1  UNL1       -0.3240
     12 C          63.0049   88.5757   11.6919 C.ar    1  UNL1        0.0781
     13 C          62.2247   87.6181   10.8408 C.ar    1  UNL1        0.0218
     14 C          62.8181   85.2175    8.2952 C.3     1  UNL1        0.0557
     15 C          61.4465   85.7896    8.0919 C.ar    1  UNL1        0.0998
     16 N          60.3372   85.1609    7.3019 N.ar    1  UNL1       -0.1332
     17 N          59.1484   86.0736    7.3647 N.ar    1  UNL1       -0.0641
     18 N          59.5231   87.2664    8.1935 N.ar    1  UNL1       -0.2300
     19 C          58.6336   88.4303    8.5162 C.3     1  UNL1        0.1555
     20 C          60.9434   87.0909    8.6430 C.ar    1  UNL1        0.0963
     21 C          66.3683   92.0254   15.8803 C.3     1  UNL1        0.1072
     22 C          65.0781   92.3051   16.5924 C.3     1  UNL1        0.0339
     23 C          67.6585   91.7457   15.1683 C.3     1  UNL1        0.0339
     24 O          67.1332   92.4732   17.0905 O.3     1  UNL1       -0.3827
     25 H          66.5115   92.7402   17.7855 H       1  UNL1        0.2107
     26 C          63.5855   87.2102   13.9152 C.3     1  UNL1        0.1080
     27 C          63.3530   87.3392   15.3914 C.ar    1  UNL1       -0.0018
     28 C          63.2634   88.6978   16.0208 C.ar    1  UNL1       -0.0025
     29 C          63.0310   88.8267   17.4971 C.ar    1  UNL1       -0.0003
     30 C          62.8882   87.5970   18.3440 C.ar    1  UNL1       -0.0000
     31 C          62.9778   86.2383   17.7147 C.ar    1  UNL1       -0.0003
     32 C          63.2102   86.1095   16.2385 C.ar    1  UNL1       -0.0025
     33 C          63.7811   85.8552   13.3024 C.3     1  UNL1        0.0300
     34 C          64.9117   84.9816   13.7593 C.3     1  UNL1        0.0344
     35 C          65.1074   83.6265   13.1465 C.3     1  UNL1        0.1422
     36 O          64.1725   83.1450   12.0768 O.3     1  UNL1       -0.3538
     37 C          63.0419   84.0186   11.6200 C.3     1  UNL1        0.1422
     38 C          62.8463   85.3737   12.2328 C.3     1  UNL1        0.0344
@<TRIPOS>BOND
     1    14    15    1
     2    15    16   ar
     3    16    17   ar
     4    17    18   ar
     5    18    19    1
     6    18    20   ar
     7    20     1    1
     8     1     2   ar
     9     2     3   ar
    10     3     4   ar
    11     4     5   ar
    12     5     6   ar
    13     6     7   ar
    14     7     8   ar
    15     8    21    1
    16    21    22    1
    17    21    23    1
    18    21    24    1
    19     8     9   ar
    20     9    10   ar
    21    10    11   ar
    22    11    26    1
    23    26    27    1
    24    27    28   ar
    25    28    29   ar
    26    29    30   ar
    27    30    31   ar
    28    31    32   ar
    29    26    33    1
    30    33    34    1
    31    34    35    1
    32    35    36    1
    33    36    37    1
    34    37    38    1
    35    11    12   ar
    36    12    13   ar
    37    20    15   ar
    38    13     1   ar
    39    12     4   ar
    40    10     5   ar
    41    32    27   ar
    42    38    33    1
    43    24    25    1
