@<TRIPOS>MOLECULE
*****
 34 37 0 0 0
SMALL
GASTEIGER

@<TRIPOS>ATOM
      1 C          63.3301   90.7035   11.5941 C.ar    1  UNL1        0.1267
      2 C          62.0972   91.2415   10.9303 C.ar    1  UNL1        0.0211
      3 C          60.9700   90.3163   10.5793 C.ar    1  UNL1        0.0140
      4 C          61.0756   88.8530   10.8920 C.ar    1  UNL1        0.0712
      5 CL         59.9484   87.9278   10.5409 Cl      1  UNL1       -0.0810
      6 C          62.3085   88.3150   11.5557 C.ar    1  UNL1        0.0626
      7 C          63.4358   89.2403   11.9068 C.ar    1  UNL1        0.0357
      8 N          62.4142   86.8518   11.8684 N.am    1  UNL1       -0.2797
      9 C          62.6292   85.8621   10.7620 C.2     1  UNL1        0.2495
     10 O          62.7386   86.3356    9.3429 O.2     1  UNL1       -0.2698
     11 H          62.3424   86.5410   12.7998 H       1  UNL1        0.1552
     12 C          62.7349   84.3988   11.0747 C.ar    1  UNL1        0.0533
     13 C          63.4022   83.4707   10.1035 C.ar    1  UNL1        0.0042
     14 C          63.5079   82.0074   10.4161 C.ar    1  UNL1       -0.0031
     15 C          62.9463   81.4723   11.6999 C.ar    1  UNL1       -0.0103
     16 C          62.2789   82.4004   12.6711 C.ar    1  UNL1       -0.0233
     17 C          62.1732   83.8637   12.3585 C.ar    1  UNL1        0.0000
     18 C          61.7173   81.8653   13.9549 C.3     1  UNL1        0.0432
     19 C          61.8230   80.4021   14.2675 C.3     1  UNL1        0.0735
     20 N          62.4903   79.4740   13.2963 N.3     1  UNL1       -0.2935
     21 C          63.0520   80.0091   12.0125 C.3     1  UNL1        0.0953
     22 H          61.8004   78.7665   13.0436 H       1  UNL1        0.1236
     23 S          64.4573   91.6287   11.9451 S.O2    1  UNL1        0.0766
     24 O          64.5911   90.9590   13.2806 O.2     1  UNL1       -0.1497
     25 O          64.3235   92.2985   10.6096 O.2     1  UNL1       -0.1497
     26 N          65.5846   92.5540   12.2961 N.pl3   1  UNL1       -0.1906
     27 C          66.3912   93.1997   11.2087 C.ar    1  UNL1        0.0688
     28 C          67.3595   92.3816   10.4066 C.ar    1  UNL1        0.0161
     29 C          68.1661   93.0272    9.3192 C.ar    1  UNL1        0.0013
     30 C          68.0045   94.4910    9.0339 C.ar    1  UNL1        0.0001
     31 C          67.0362   95.3090    9.8359 C.ar    1  UNL1        0.0013
     32 C          66.2296   94.6633   10.9233 C.ar    1  UNL1        0.0161
     33 C          67.3300   92.8129   14.2031 C.3     1  UNL1        0.0252
     34 C          65.9052   92.8336   13.7345 C.3     1  UNL1        0.1159
@<TRIPOS>BOND
     1    33    34    1
     2    34    26    1
     3    26    27    1
     4    27    28   ar
     5    28    29   ar
     6    29    30   ar
     7    30    31   ar
     8    31    32   ar
     9    26    23    1
    10    23    24    2
    11    23    25    2
    12    23     1    1
    13     1     2   ar
    14     2     3   ar
    15     3     4   ar
    16     4     5    1
    17     4     6   ar
    18     6     8    1
    19     8     9   am
    20     9    10    2
    21     9    12    1
    22    12    13   ar
    23    13    14   ar
    24    14    15   ar
    25    15    16   ar
    26    16    17   ar
    27    16    18    1
    28    18    19    1
    29    19    20    1
    30    20    21    1
    31     6     7   ar
    32    32    27   ar
    33     7     1   ar
    34    17    12   ar
    35    21    15    1
    36     8    11    1
    37    20    22    1
@<TRIPOS>MOLECULE
*****
 34 37 0 0 0
SMALL
GASTEIGER

@<TRIPOS>ATOM
      1 C          63.4869   89.7623   12.7088 C.ar    1  UNL1        0.1267
      2 C          63.0048   90.5779   11.5459 C.ar    1  UNL1        0.0211
      3 C          62.3862   89.8999   10.3595 C.ar    1  UNL1        0.0140
      4 C          62.2496   88.4063   10.3360 C.ar    1  UNL1        0.0712
      5 CL         61.6309   87.7284    9.1496 Cl      1  UNL1       -0.0810
      6 C          62.7317   87.5907   11.4989 C.ar    1  UNL1        0.0626
      7 C          63.3503   88.2687   12.6854 C.ar    1  UNL1        0.0357
      8 N          62.5951   86.0971   11.4754 N.am    1  UNL1       -0.2797
      9 C          63.0170   85.2867   12.6649 C.2     1  UNL1        0.2495
     10 O          63.5755   85.9698   13.8780 O.2     1  UNL1       -0.2698
     11 H          62.2285   85.6488   10.6792 H       1  UNL1        0.1552
     12 C          62.8804   83.7930   12.6415 C.ar    1  UNL1        0.0533
     13 C          62.5670   83.0487   13.9055 C.ar    1  UNL1        0.0042
     14 C          62.4304   81.5551   13.8821 C.ar    1  UNL1       -0.0031
     15 C          62.6073   80.8058   12.5946 C.ar    1  UNL1       -0.0103
     16 C          62.9208   81.5502   11.3307 C.ar    1  UNL1       -0.0233
     17 C          63.0574   83.0439   11.3541 C.ar    1  UNL1        0.0000
     18 C          63.0977   80.8011   10.0433 C.3     1  UNL1        0.0432
     19 C          62.9612   79.3075   10.0199 C.3     1  UNL1        0.0735
     20 N          62.6477   78.5631   11.2839 N.3     1  UNL1       -0.2935
     21 C          62.4708   79.3123   12.5712 C.3     1  UNL1        0.0953
     22 H          63.4084   77.8998   11.4313 H       1  UNL1        0.1236
     23 S          64.1056   90.4402   13.8953 S.O2    1  UNL1        0.0766
     24 O          63.5811   91.7606   13.4143 O.2     1  UNL1       -0.1497
     25 O          64.6301   89.1198   14.3763 O.2     1  UNL1       -0.1497
     26 N          64.7243   91.1181   15.0818 N.pl3   1  UNL1       -0.1906
     27 C          66.1086   91.6873   14.9828 C.ar    1  UNL1        0.0688
     28 C          66.7020   92.4229   16.1477 C.ar    1  UNL1        0.0161
     29 C          68.0863   92.9921   16.0488 C.ar    1  UNL1        0.0013
     30 C          68.8771   92.8258   14.7850 C.ar    1  UNL1        0.0001
     31 C          68.2836   92.0903   13.6203 C.ar    1  UNL1        0.0013
     32 C          66.8993   91.5211   13.7192 C.ar    1  UNL1        0.0161
     33 C          63.1550   90.0611   16.8622 C.3     1  UNL1        0.0252
     34 C          63.9587   91.2268   16.3671 C.3     1  UNL1        0.1159
@<TRIPOS>BOND
     1    33    34    1
     2    34    26    1
     3    26    27    1
     4    27    28   ar
     5    28    29   ar
     6    29    30   ar
     7    30    31   ar
     8    31    32   ar
     9    26    23    1
    10    23    24    2
    11    23    25    2
    12    23     1    1
    13     1     2   ar
    14     2     3   ar
    15     3     4   ar
    16     4     5    1
    17     4     6   ar
    18     6     8    1
    19     8     9   am
    20     9    10    2
    21     9    12    1
    22    12    13   ar
    23    13    14   ar
    24    14    15   ar
    25    15    16   ar
    26    16    17   ar
    27    16    18    1
    28    18    19    1
    29    19    20    1
    30    20    21    1
    31     6     7   ar
    32    32    27   ar
    33     7     1   ar
    34    17    12   ar
    35    21    15    1
    36     8    11    1
    37    20    22    1
@<TRIPOS>MOLECULE
*****
 34 37 0 0 0
SMALL
GASTEIGER

@<TRIPOS>ATOM
      1 C          62.9084   84.9828   15.4074 C.ar    1  UNL1        0.1267
      2 C          62.2445   85.1048   16.7469 C.ar    1  UNL1        0.0211
      3 C          62.3469   86.3855   17.5209 C.ar    1  UNL1        0.0140
      4 C          63.1132   87.5445   16.9553 C.ar    1  UNL1        0.0712
      5 CL         63.2156   88.8252   17.7292 Cl      1  UNL1       -0.0810
      6 C          63.7770   87.4225   15.6157 C.ar    1  UNL1        0.0626
      7 C          63.6746   86.1416   14.8418 C.ar    1  UNL1        0.0357
      8 N          64.5432   88.5813   15.0501 N.am    1  UNL1       -0.2797
      9 C          63.8100   89.7726   14.5087 C.2     1  UNL1        0.2495
     10 O          62.3106   89.8051   14.5329 O.2     1  UNL1       -0.2698
     11 H          65.5274   88.5600   15.0342 H       1  UNL1        0.1552
     12 C          64.5763   90.9315   13.9430 C.ar    1  UNL1        0.0533
     13 C          65.4717   91.7437   14.8311 C.ar    1  UNL1        0.0042
     14 C          66.2379   92.9026   14.2655 C.ar    1  UNL1       -0.0031
     15 C          66.1087   93.2493   12.8118 C.ar    1  UNL1       -0.0103
     16 C          65.2133   92.4371   11.9238 C.ar    1  UNL1       -0.0233
     17 C          64.4471   91.2782   12.4894 C.ar    1  UNL1        0.0000
     18 C          65.0841   92.7838   10.4701 C.3     1  UNL1        0.0432
     19 C          65.8503   93.9427    9.9046 C.3     1  UNL1        0.0735
     20 N          66.7457   94.7548   10.7926 N.3     1  UNL1       -0.2935
     21 C          66.8749   94.4082   12.2462 C.3     1  UNL1        0.0953
     22 H          66.4103   95.7171   10.7481 H       1  UNL1        0.1236
     23 S          62.8060   83.7020   14.6334 S.O2    1  UNL1        0.0766
     24 O          61.9295   84.3821   13.6239 O.2     1  UNL1       -0.1497
     25 O          63.6824   83.0219   15.6430 O.2     1  UNL1       -0.1497
     26 N          62.7036   82.4211   13.8594 N.pl3   1  UNL1       -0.1906
     27 C          63.2331   82.3474   12.4580 C.ar    1  UNL1        0.0688
     28 C          62.8537   81.1975   11.5724 C.ar    1  UNL1        0.0161
     29 C          63.3832   81.1238   10.1709 C.ar    1  UNL1        0.0013
     30 C          64.2921   82.1998    9.6550 C.ar    1  UNL1        0.0001
     31 C          64.6714   83.3495   10.5405 C.ar    1  UNL1        0.0013
     32 C          64.1419   83.4233   11.9420 C.ar    1  UNL1        0.0161
     33 C          60.6652   80.8333   14.1311 C.3     1  UNL1        0.0252
     34 C          62.0718   81.2141   14.4870 C.3     1  UNL1        0.1159
@<TRIPOS>BOND
     1    33    34    1
     2    34    26    1
     3    26    27    1
     4    27    28   ar
     5    28    29   ar
     6    29    30   ar
     7    30    31   ar
     8    31    32   ar
     9    26    23    1
    10    23    24    2
    11    23    25    2
    12    23     1    1
    13     1     2   ar
    14     2     3   ar
    15     3     4   ar
    16     4     5    1
    17     4     6   ar
    18     6     8    1
    19     8     9   am
    20     9    10    2
    21     9    12    1
    22    12    13   ar
    23    13    14   ar
    24    14    15   ar
    25    15    16   ar
    26    16    17   ar
    27    16    18    1
    28    18    19    1
    29    19    20    1
    30    20    21    1
    31     6     7   ar
    32    32    27   ar
    33     7     1   ar
    34    17    12   ar
    35    21    15    1
    36     8    11    1
    37    20    22    1
@<TRIPOS>MOLECULE
*****
 34 37 0 0 0
SMALL
GASTEIGER

@<TRIPOS>ATOM
      1 C          63.7436   87.4510   14.9331 C.ar    1  UNL1        0.1267
      2 C          63.3973   87.7621   16.3590 C.ar    1  UNL1        0.0211
      3 C          63.4104   89.1823   16.8413 C.ar    1  UNL1        0.0140
      4 C          63.7698   90.2916   15.8977 C.ar    1  UNL1        0.0712
      5 CL         63.7828   91.7119   16.3800 Cl      1  UNL1       -0.0810
      6 C          64.1160   89.9806   14.4717 C.ar    1  UNL1        0.0626
      7 C          64.1029   88.5602   13.9894 C.ar    1  UNL1        0.0357
      8 N          64.4753   91.0898   13.5280 N.am    1  UNL1       -0.2797
      9 C          65.8426   91.7044   13.5790 C.2     1  UNL1        0.2495
     10 O          66.8506   91.2097   14.5736 O.2     1  UNL1       -0.2698
     11 H          63.8137   91.4144   12.8752 H       1  UNL1        0.1552
     12 C          66.2020   92.8136   12.6353 C.ar    1  UNL1        0.0533
     13 C          66.0342   94.2427   13.0591 C.ar    1  UNL1        0.0042
     14 C          66.3936   95.3519   12.1155 C.ar    1  UNL1       -0.0031
     15 C          66.9207   95.0321   10.7480 C.ar    1  UNL1       -0.0103
     16 C          67.0884   93.6030   10.3242 C.ar    1  UNL1       -0.0233
     17 C          66.7291   92.4938   11.2679 C.ar    1  UNL1        0.0000
     18 C          67.6155   93.2832    8.9568 C.3     1  UNL1        0.0432
     19 C          67.9749   94.3924    8.0132 C.3     1  UNL1        0.0735
     20 N          67.8071   95.8215    8.4370 N.3     1  UNL1       -0.2935
     21 C          67.2800   96.1413    9.8044 C.3     1  UNL1        0.0953
     22 H          67.1709   96.2544    7.7675 H       1  UNL1        0.1236
     23 S          63.7305   86.0308   14.4508 S.O2    1  UNL1        0.0766
     24 O          64.0108   85.5546   15.8453 O.2     1  UNL1       -0.1497
     25 O          63.4502   86.5069   13.0563 O.2     1  UNL1       -0.1497
     26 N          63.7174   84.6105   13.9684 N.pl3   1  UNL1       -0.1906
     27 C          63.6706   84.3182   12.4979 C.ar    1  UNL1        0.0688
     28 C          64.5985   83.2990   11.9058 C.ar    1  UNL1        0.0161
     29 C          64.5517   83.0068   10.4353 C.ar    1  UNL1        0.0013
     30 C          63.5771   83.7338    9.5568 C.ar    1  UNL1        0.0001
     31 C          62.6493   84.7530   10.1488 C.ar    1  UNL1        0.0013
     32 C          62.6961   85.0452   11.6194 C.ar    1  UNL1        0.0161
     33 C          62.7240   82.3915   14.8846 C.3     1  UNL1        0.0252
     34 C          63.7511   83.4825   14.9565 C.3     1  UNL1        0.1159
@<TRIPOS>BOND
     1    33    34    1
     2    34    26    1
     3    26    27    1
     4    27    28   ar
     5    28    29   ar
     6    29    30   ar
     7    30    31   ar
     8    31    32   ar
     9    26    23    1
    10    23    24    2
    11    23    25    2
    12    23     1    1
    13     1     2   ar
    14     2     3   ar
    15     3     4   ar
    16     4     5    1
    17     4     6   ar
    18     6     8    1
    19     8     9   am
    20     9    10    2
    21     9    12    1
    22    12    13   ar
    23    13    14   ar
    24    14    15   ar
    25    15    16   ar
    26    16    17   ar
    27    16    18    1
    28    18    19    1
    29    19    20    1
    30    20    21    1
    31     6     7   ar
    32    32    27   ar
    33     7     1   ar
    34    17    12   ar
    35    21    15    1
    36     8    11    1
    37    20    22    1
@<TRIPOS>MOLECULE
*****
 34 37 0 0 0
SMALL
GASTEIGER

@<TRIPOS>ATOM
      1 C          63.3822   90.6671   11.5509 C.ar    1  UNL1        0.1267
      2 C          62.1768   91.2793   10.9012 C.ar    1  UNL1        0.0211
      3 C          61.0027   90.4195   10.5378 C.ar    1  UNL1        0.0140
      4 C          61.0340   88.9473   10.8241 C.ar    1  UNL1        0.0712
      5 CL         59.8599   88.0875   10.4606 Cl      1  UNL1       -0.0810
      6 C          62.2394   88.3351   11.4737 C.ar    1  UNL1        0.0626
      7 C          63.4136   89.1950   11.8372 C.ar    1  UNL1        0.0357
      8 N          62.2707   86.8630   11.7600 N.am    1  UNL1       -0.2797
      9 C          63.0201   86.3467   12.9524 C.2     1  UNL1        0.2495
     10 O          63.7381   87.3024   13.8585 O.2     1  UNL1       -0.2698
     11 H          61.7995   86.2358   11.1653 H       1  UNL1        0.1552
     12 C          63.0515   84.8745   13.2387 C.ar    1  UNL1        0.0533
     13 C          63.3332   84.3867   14.6289 C.ar    1  UNL1        0.0042
     14 C          63.3646   82.9147   14.9152 C.ar    1  UNL1       -0.0031
     15 C          63.1142   81.9303   13.8113 C.ar    1  UNL1       -0.0103
     16 C          62.8325   82.4182   12.4211 C.ar    1  UNL1       -0.0233
     17 C          62.8011   83.8903   12.1348 C.ar    1  UNL1        0.0000
     18 C          62.5821   81.4339   11.3173 C.3     1  UNL1        0.0432
     19 C          62.6135   79.9619   11.6036 C.3     1  UNL1        0.0735
     20 N          62.8952   79.4741   12.9938 N.3     1  UNL1       -0.2935
     21 C          63.1456   80.4583   14.0977 C.3     1  UNL1        0.0953
     22 H          63.7225   78.8803   12.9355 H       1  UNL1        0.1236
     23 S          64.5563   91.5269   11.9144 S.O2    1  UNL1        0.0766
     24 O          64.4729   92.2052   10.5791 O.2     1  UNL1       -0.1497
     25 O          64.6397   90.8486   13.2496 O.2     1  UNL1       -0.1497
     26 N          65.7305   92.3868   12.2778 N.pl3   1  UNL1       -0.1906
     27 C          66.2774   93.3684   11.2842 C.ar    1  UNL1        0.0688
     28 C          65.8201   94.7968   11.3115 C.ar    1  UNL1        0.0161
     29 C          66.3670   95.7784   10.3179 C.ar    1  UNL1        0.0013
     30 C          67.3711   95.3317    9.2969 C.ar    1  UNL1        0.0001
     31 C          67.8283   93.9033    9.2697 C.ar    1  UNL1        0.0013
     32 C          67.2814   92.9217   10.2633 C.ar    1  UNL1        0.0161
     33 C          66.4297   93.4605   14.5380 C.3     1  UNL1        0.0252
     34 C          66.3578   92.2649   13.6349 C.3     1  UNL1        0.1159
@<TRIPOS>BOND
     1    33    34    1
     2    34    26    1
     3    26    27    1
     4    27    28   ar
     5    28    29   ar
     6    29    30   ar
     7    30    31   ar
     8    31    32   ar
     9    26    23    1
    10    23    24    2
    11    23    25    2
    12    23     1    1
    13     1     2   ar
    14     2     3   ar
    15     3     4   ar
    16     4     5    1
    17     4     6   ar
    18     6     8    1
    19     8     9   am
    20     9    10    2
    21     9    12    1
    22    12    13   ar
    23    13    14   ar
    24    14    15   ar
    25    15    16   ar
    26    16    17   ar
    27    16    18    1
    28    18    19    1
    29    19    20    1
    30    20    21    1
    31     6     7   ar
    32    32    27   ar
    33     7     1   ar
    34    17    12   ar
    35    21    15    1
    36     8    11    1
    37    20    22    1
@<TRIPOS>MOLECULE
*****
 34 37 0 0 0
SMALL
GASTEIGER

@<TRIPOS>ATOM
      1 C          63.4165   84.3544   13.6753 C.ar    1  UNL1        0.1267
      2 C          62.7038   83.8463   14.8934 C.ar    1  UNL1        0.0211
      3 C          62.5952   84.7111   16.1142 C.ar    1  UNL1        0.0140
      4 C          63.1994   86.0841   16.1169 C.ar    1  UNL1        0.0712
      5 CL         63.0908   86.9489   17.3376 Cl      1  UNL1       -0.0810
      6 C          63.9121   86.5922   14.8987 C.ar    1  UNL1        0.0626
      7 C          64.0207   85.7274   13.6779 C.ar    1  UNL1        0.0357
      8 N          64.5163   87.9651   14.9014 N.am    1  UNL1       -0.2797
      9 C          64.1498   88.9478   13.8290 C.2     1  UNL1        0.2495
     10 O          63.1792   88.5575   12.7540 O.2     1  UNL1       -0.2698
     11 H          65.1533   88.2213   15.6069 H       1  UNL1        0.1552
     12 C          64.7540   90.3208   13.8316 C.ar    1  UNL1        0.0533
     13 C          65.3297   90.8845   15.0968 C.ar    1  UNL1        0.0042
     14 C          65.9338   92.2574   15.0995 C.ar    1  UNL1       -0.0031
     15 C          65.9622   93.0668   13.8368 C.ar    1  UNL1       -0.0103
     16 C          65.3866   92.5031   12.5716 C.ar    1  UNL1       -0.0233
     17 C          64.7824   91.1301   12.5690 C.ar    1  UNL1        0.0000
     18 C          65.4150   93.3123   11.3090 C.3     1  UNL1        0.0432
     19 C          66.0191   94.6853   11.3116 C.3     1  UNL1        0.0735
     20 N          66.5948   95.2489   12.5768 N.3     1  UNL1       -0.2935
     21 C          66.5664   94.4397   13.8395 C.3     1  UNL1        0.0953
     22 H          66.0902   96.1140   12.7701 H       1  UNL1        0.1236
     23 S          63.5251   83.4897   12.4545 S.O2    1  UNL1        0.0766
     24 O          62.0798   83.7451   12.1450 O.2     1  UNL1       -0.1497
     25 O          64.9704   83.2342   12.7640 O.2     1  UNL1       -0.1497
     26 N          63.6337   82.6248   11.2337 N.pl3   1  UNL1       -0.1906
     27 C          63.2190   81.1846   11.2956 C.ar    1  UNL1        0.0688
     28 C          62.8527   80.5655   12.6119 C.ar    1  UNL1        0.0161
     29 C          62.4380   79.1253   12.6737 C.ar    1  UNL1        0.0013
     30 C          62.3897   78.3042   11.4193 C.ar    1  UNL1        0.0001
     31 C          62.7560   78.9233   10.1031 C.ar    1  UNL1        0.0013
     32 C          63.1707   80.3635   10.0412 C.ar    1  UNL1        0.0161
     33 C          63.4059   84.3001    9.2610 C.3     1  UNL1        0.0252
     34 C          64.1570   83.2002    9.9511 C.3     1  UNL1        0.1159
@<TRIPOS>BOND
     1    33    34    1
     2    34    26    1
     3    26    27    1
     4    27    28   ar
     5    28    29   ar
     6    29    30   ar
     7    30    31   ar
     8    31    32   ar
     9    26    23    1
    10    23    24    2
    11    23    25    2
    12    23     1    1
    13     1     2   ar
    14     2     3   ar
    15     3     4   ar
    16     4     5    1
    17     4     6   ar
    18     6     8    1
    19     8     9   am
    20     9    10    2
    21     9    12    1
    22    12    13   ar
    23    13    14   ar
    24    14    15   ar
    25    15    16   ar
    26    16    17   ar
    27    16    18    1
    28    18    19    1
    29    19    20    1
    30    20    21    1
    31     6     7   ar
    32    32    27   ar
    33     7     1   ar
    34    17    12   ar
    35    21    15    1
    36     8    11    1
    37    20    22    1
@<TRIPOS>MOLECULE
*****
 34 37 0 0 0
SMALL
GASTEIGER

@<TRIPOS>ATOM
      1 C          63.6674   86.1255   14.1872 C.ar    1  UNL1        0.1267
      2 C          63.3585   86.0210   15.6513 C.ar    1  UNL1        0.0211
      3 C          63.3276   87.2565   16.5014 C.ar    1  UNL1        0.0140
      4 C          63.6055   88.5965   15.8872 C.ar    1  UNL1        0.0712
      5 CL         63.5746   89.8320   16.7373 Cl      1  UNL1       -0.0810
      6 C          63.9144   88.7010   14.4231 C.ar    1  UNL1        0.0626
      7 C          63.9453   87.4654   13.5731 C.ar    1  UNL1        0.0357
      8 N          64.1923   90.0410   13.8090 N.am    1  UNL1       -0.2797
      9 C          65.4807   90.7493   14.1059 C.2     1  UNL1        0.2495
     10 O          66.4912   90.1176   15.0169 O.2     1  UNL1       -0.2698
     11 H          63.5291   90.4555   13.2111 H       1  UNL1        0.1552
     12 C          65.7587   92.0893   13.4917 C.ar    1  UNL1        0.0533
     13 C          66.2412   93.2217   14.3491 C.ar    1  UNL1        0.0042
     14 C          66.5192   94.5617   13.7350 C.ar    1  UNL1       -0.0031
     15 C          66.3147   94.7694   12.2635 C.ar    1  UNL1       -0.0103
     16 C          65.8323   93.6370   11.4062 C.ar    1  UNL1       -0.0233
     17 C          65.5543   92.2969   12.0203 C.ar    1  UNL1        0.0000
     18 C          65.6279   93.8446    9.9348 C.3     1  UNL1        0.0432
     19 C          65.9059   95.1846    9.3207 C.3     1  UNL1        0.0735
     20 N          66.3883   96.3170   10.1781 N.3     1  UNL1       -0.2935
     21 C          66.5927   96.1093   11.6495 C.3     1  UNL1        0.0953
     22 H          65.7092   97.0715   10.0787 H       1  UNL1        0.1236
     23 S          63.6983   84.8900   13.3372 S.O2    1  UNL1        0.0766
     24 O          65.0035   84.4935   13.9610 O.2     1  UNL1       -0.1497
     25 O          62.3930   85.2864   12.7134 O.2     1  UNL1       -0.1497
     26 N          63.7292   83.6544   12.4871 N.pl3   1  UNL1       -0.1906
     27 C          63.0126   82.4160   12.9376 C.ar    1  UNL1        0.0688
     28 C          63.2113   81.1246   12.2008 C.ar    1  UNL1        0.0161
     29 C          62.4948   79.8862   12.6513 C.ar    1  UNL1        0.0013
     30 C          61.5796   79.9392   13.8387 C.ar    1  UNL1        0.0001
     31 C          61.3810   81.2306   14.5754 C.ar    1  UNL1        0.0013
     32 C          62.0975   82.4690   14.1249 C.ar    1  UNL1        0.0161
     33 C          63.7810   84.0685    9.9228 C.3     1  UNL1        0.0252
     34 C          64.4765   83.6573   11.1866 C.3     1  UNL1        0.1159
@<TRIPOS>BOND
     1    33    34    1
     2    34    26    1
     3    26    27    1
     4    27    28   ar
     5    28    29   ar
     6    29    30   ar
     7    30    31   ar
     8    31    32   ar
     9    26    23    1
    10    23    24    2
    11    23    25    2
    12    23     1    1
    13     1     2   ar
    14     2     3   ar
    15     3     4   ar
    16     4     5    1
    17     4     6   ar
    18     6     8    1
    19     8     9   am
    20     9    10    2
    21     9    12    1
    22    12    13   ar
    23    13    14   ar
    24    14    15   ar
    25    15    16   ar
    26    16    17   ar
    27    16    18    1
    28    18    19    1
    29    19    20    1
    30    20    21    1
    31     6     7   ar
    32    32    27   ar
    33     7     1   ar
    34    17    12   ar
    35    21    15    1
    36     8    11    1
    37    20    22    1
@<TRIPOS>MOLECULE
*****
 34 37 0 0 0
SMALL
GASTEIGER

@<TRIPOS>ATOM
      1 C          63.3330   84.2718   13.5637 C.ar    1  UNL1        0.1267
      2 C          62.5667   83.7764   14.7543 C.ar    1  UNL1        0.0211
      3 C          62.4656   84.6248   15.9871 C.ar    1  UNL1        0.0140
      4 C          63.1308   85.9686   16.0294 C.ar    1  UNL1        0.0712
      5 CL         63.0297   86.8170   17.2623 Cl      1  UNL1       -0.0810
      6 C          63.8971   86.4640   14.8389 C.ar    1  UNL1        0.0626
      7 C          63.9982   85.6155   13.6060 C.ar    1  UNL1        0.0357
      8 N          64.5623   87.8077   14.8811 N.am    1  UNL1       -0.2797
      9 C          64.2167   88.8482   13.8575 C.2     1  UNL1        0.2495
     10 O          63.2059   88.5449   12.7915 O.2     1  UNL1       -0.2698
     11 H          65.2258   88.0067   15.5807 H       1  UNL1        0.1552
     12 C          64.8819   90.1920   13.8997 C.ar    1  UNL1        0.0533
     13 C          64.4637   91.2663   12.9401 C.ar    1  UNL1        0.0042
     14 C          65.1289   92.6101   12.9823 C.ar    1  UNL1       -0.0031
     15 C          66.2123   92.8796   13.9842 C.ar    1  UNL1       -0.0103
     16 C          66.6305   91.8052   14.9438 C.ar    1  UNL1       -0.0233
     17 C          65.9653   90.4614   14.9015 C.ar    1  UNL1        0.0000
     18 C          67.7139   92.0746   15.9456 C.3     1  UNL1        0.0432
     19 C          68.3791   93.4183   15.9878 C.3     1  UNL1        0.0735
     20 N          67.9609   94.4927   15.0282 N.3     1  UNL1       -0.2935
     21 C          66.8775   94.2233   14.0263 C.3     1  UNL1        0.0953
     22 H          68.7925   94.7550   14.4991 H       1  UNL1        0.1236
     23 S          63.4341   83.4233   12.3309 S.O2    1  UNL1        0.0766
     24 O          62.0373   83.8135   11.9479 O.2     1  UNL1       -0.1497
     25 O          64.8308   83.0332   12.7138 O.2     1  UNL1       -0.1497
     26 N          63.5352   82.5749   11.0980 N.pl3   1  UNL1       -0.1906
     27 C          63.1608   81.1234   11.1536 C.ar    1  UNL1        0.0688
     28 C          62.7900   80.4942   12.4639 C.ar    1  UNL1        0.0161
     29 C          62.4157   79.0428   12.5196 C.ar    1  UNL1        0.0013
     30 C          62.4121   78.2205   11.2650 C.ar    1  UNL1        0.0001
     31 C          62.7829   78.8497    9.9549 C.ar    1  UNL1        0.0013
     32 C          63.1573   80.3011    9.8992 C.ar    1  UNL1        0.0161
     33 C          63.3946   84.4486    9.3037 C.3     1  UNL1        0.0252
     34 C          64.0107   83.1779    9.8095 C.3     1  UNL1        0.1159
@<TRIPOS>BOND
     1    33    34    1
     2    34    26    1
     3    26    27    1
     4    27    28   ar
     5    28    29   ar
     6    29    30   ar
     7    30    31   ar
     8    31    32   ar
     9    26    23    1
    10    23    24    2
    11    23    25    2
    12    23     1    1
    13     1     2   ar
    14     2     3   ar
    15     3     4   ar
    16     4     5    1
    17     4     6   ar
    18     6     8    1
    19     8     9   am
    20     9    10    2
    21     9    12    1
    22    12    13   ar
    23    13    14   ar
    24    14    15   ar
    25    15    16   ar
    26    16    17   ar
    27    16    18    1
    28    18    19    1
    29    19    20    1
    30    20    21    1
    31     6     7   ar
    32    32    27   ar
    33     7     1   ar
    34    17    12   ar
    35    21    15    1
    36     8    11    1
    37    20    22    1
@<TRIPOS>MOLECULE
*****
 34 37 0 0 0
SMALL
GASTEIGER

@<TRIPOS>ATOM
      1 C          46.3058   77.7086   19.0628 C.ar    1  UNL1        0.1267
      2 C          47.0424   77.2517   20.2870 C.ar    1  UNL1        0.0211
      3 C          47.5312   75.8369   20.3838 C.ar    1  UNL1        0.0140
      4 C          47.2834   74.8790   19.2564 C.ar    1  UNL1        0.0712
      5 CL         47.7722   73.4642   19.3532 Cl      1  UNL1       -0.0810
      6 C          46.5468   75.3359   18.0322 C.ar    1  UNL1        0.0626
      7 C          46.0580   76.7508   17.9354 C.ar    1  UNL1        0.0357
      8 N          46.2990   74.3780   16.9048 N.am    1  UNL1       -0.2797
      9 C          45.2584   73.3070   17.0457 C.2     1  UNL1        0.2495
     10 O          44.4655   73.1939   18.3140 O.2     1  UNL1       -0.2698
     11 H          46.8194   74.4523   16.0724 H       1  UNL1        0.1552
     12 C          45.0105   72.3491   15.9182 C.ar    1  UNL1        0.0533
     13 C          43.8812   72.5928   14.9616 C.ar    1  UNL1        0.0042
     14 C          43.6333   71.6350   13.8342 C.ar    1  UNL1       -0.0031
     15 C          44.5148   70.4333   13.6634 C.ar    1  UNL1       -0.0103
     16 C          45.6441   70.1896   14.6201 C.ar    1  UNL1       -0.0233
     17 C          45.8920   71.1475   15.7475 C.ar    1  UNL1        0.0000
     18 C          46.5256   68.9880   14.4494 C.3     1  UNL1        0.0432
     19 C          46.2777   68.0302   13.3220 C.3     1  UNL1        0.0735
     20 N          45.1484   68.2739   12.3653 N.3     1  UNL1       -0.2935
     21 C          44.2669   69.4755   12.5361 C.3     1  UNL1        0.0953
     22 H          44.5420   67.4550   12.4109 H       1  UNL1        0.1236
     23 S          45.8171   79.1234   18.9660 S.O2    1  UNL1        0.0766
     24 O          47.2287   79.6186   19.0753 O.2     1  UNL1       -0.1497
     25 O          44.4054   78.6282   18.8567 O.2     1  UNL1       -0.1497
     26 N          45.3282   80.5383   18.8692 N.pl3   1  UNL1       -0.1906
     27 C          45.0341   81.1399   17.5270 C.ar    1  UNL1        0.0688
     28 C          44.0803   82.2922   17.4143 C.ar    1  UNL1        0.0161
     29 C          43.7862   82.8939   16.0721 C.ar    1  UNL1        0.0013
     30 C          44.4459   82.3433   14.8426 C.ar    1  UNL1        0.0001
     31 C          45.3996   81.1911   14.9553 C.ar    1  UNL1        0.0013
     32 C          45.6937   80.5894   16.2974 C.ar    1  UNL1        0.0161
     33 C          45.0773   80.6737   21.4516 C.3     1  UNL1        0.0252
     34 C          45.1335   81.3514   20.1145 C.3     1  UNL1        0.1159
@<TRIPOS>BOND
     1    33    34    1
     2    34    26    1
     3    26    27    1
     4    27    28   ar
     5    28    29   ar
     6    29    30   ar
     7    30    31   ar
     8    31    32   ar
     9    26    23    1
    10    23    24    2
    11    23    25    2
    12    23     1    1
    13     1     2   ar
    14     2     3   ar
    15     3     4   ar
    16     4     5    1
    17     4     6   ar
    18     6     8    1
    19     8     9   am
    20     9    10    2
    21     9    12    1
    22    12    13   ar
    23    13    14   ar
    24    14    15   ar
    25    15    16   ar
    26    16    17   ar
    27    16    18    1
    28    18    19    1
    29    19    20    1
    30    20    21    1
    31     6     7   ar
    32    32    27   ar
    33     7     1   ar
    34    17    12   ar
    35    21    15    1
    36     8    11    1
    37    20    22    1
