@<TRIPOS>MOLECULE
*****
 28 31 0 0 0
SMALL
GASTEIGER

@<TRIPOS>ATOM
      1 C          62.8820   89.9217   10.8752 C.ar    1  UNL1        0.0001
      2 C          63.3269   91.0467    9.9885 C.ar    1  UNL1        0.0000
      3 C          64.2900   92.0736   10.5060 C.ar    1  UNL1        0.0001
      4 C          64.8083   91.9755   11.9102 C.ar    1  UNL1        0.0029
      5 C          65.7714   93.0024   12.4277 C.ar    1  UNL1        0.0338
      6 C          66.2897   92.9043   13.8319 C.ar    1  UNL1        0.1336
      7 O          67.2528   93.9312   14.3494 O.3     1  UNL1       -0.5055
      8 C          65.8448   91.7791   14.7186 C.ar    1  UNL1        0.0366
      9 C          64.8817   90.7522   14.2011 C.ar    1  UNL1        0.0031
     10 C          64.3634   90.8504   12.7969 C.ar    1  UNL1        0.0002
     11 C          63.4003   89.8235   12.2794 C.ar    1  UNL1        0.0000
     12 H          67.5307   94.6340   13.7955 H       1  UNL1        0.2922
     13 O          59.0529   88.5746    7.6313 O.3     1  UNL1       -0.5055
     14 C          60.0043   88.2212    8.7358 C.ar    1  UNL1        0.1337
     15 C          59.9926   86.8408    9.3227 C.ar    1  UNL1        0.0366
     16 C          60.9441   86.4874   10.4272 C.ar    1  UNL1        0.0031
     17 C          61.9072   87.5144   10.9447 C.ar    1  UNL1        0.0002
     18 C          61.9189   88.8947   10.3577 C.ar    1  UNL1        0.0030
     19 C          60.9674   89.2481    9.2533 C.ar    1  UNL1        0.0366
     20 H          58.4512   87.9331    7.3080 H       1  UNL1        0.2922
     21 C          66.2163   94.1275   11.5410 C.ar    1  UNL1        0.0059
     22 C          65.9822   95.5491   11.9585 C.ar    1  UNL1        0.0003
     23 C          66.4271   96.6742   11.0717 C.ar    1  UNL1        0.0031
     24 C          67.1060   96.3777    9.7675 C.ar    1  UNL1        0.0366
     25 C          67.3402   94.9561    9.3500 C.ar    1  UNL1        0.1337
     26 O          68.0192   94.6596    8.0458 O.3     1  UNL1       -0.5055
     27 C          66.8953   93.8310   10.2367 C.ar    1  UNL1        0.0367
     28 H          68.2971   95.3624    7.4919 H       1  UNL1        0.2922
@<TRIPOS>BOND
     1    13    14    1
     2    14    15   ar
     3    15    16   ar
     4    16    17   ar
     5    17    18   ar
     6    18     1    1
     7     1     2   ar
     8     2     3   ar
     9     3     4   ar
    10     4     5   ar
    11     5    21    1
    12    21    22   ar
    13    22    23   ar
    14    23    24   ar
    15    24    25   ar
    16    25    26    1
    17    25    27   ar
    18     5     6   ar
    19     6     7    1
    20     6     8   ar
    21     8     9   ar
    22     9    10   ar
    23    10    11   ar
    24    18    19   ar
    25    19    14   ar
    26    11     1   ar
    27    10     4   ar
    28    27    21   ar
    29    13    20    1
    30    26    28    1
    31     7    12    1
@<TRIPOS>MOLECULE
*****
 28 31 0 0 0
SMALL
GASTEIGER

@<TRIPOS>ATOM
      1 C          64.1616   89.0857   14.0653 C.ar    1  UNL1        0.0001
      2 C          63.5934   89.2282   12.6844 C.ar    1  UNL1        0.0000
      3 C          63.1456   88.0125   11.9286 C.ar    1  UNL1        0.0001
      4 C          63.2658   86.6542   12.5536 C.ar    1  UNL1        0.0029
      5 C          62.8179   85.4385   11.7976 C.ar    1  UNL1        0.0338
      6 C          62.9382   84.0802   12.4226 C.ar    1  UNL1        0.1336
      7 O          62.4903   82.8645   11.6667 O.3     1  UNL1       -0.5055
      8 C          63.5064   83.9377   13.8035 C.ar    1  UNL1        0.0366
      9 C          63.9542   85.1534   14.5594 C.ar    1  UNL1        0.0031
     10 C          63.8340   86.5117   13.9344 C.ar    1  UNL1        0.0002
     11 C          64.2818   87.7274   14.6903 C.ar    1  UNL1        0.0000
     12 H          62.1354   82.9535   10.8041 H       1  UNL1        0.2922
     13 O          67.4681   93.0496   14.6606 O.3     1  UNL1       -0.5055
     14 C          66.2627   92.2834   15.1189 C.ar    1  UNL1        0.1337
     15 C          65.5053   92.7329   16.3331 C.ar    1  UNL1        0.0366
     16 C          64.2999   91.9666   16.7914 C.ar    1  UNL1        0.0031
     17 C          63.8520   90.7509   16.0354 C.ar    1  UNL1        0.0002
     18 C          64.6095   90.3014   14.8213 C.ar    1  UNL1        0.0030
     19 C          65.8148   91.0677   14.3630 C.ar    1  UNL1        0.0366
     20 H          67.7479   93.8090   15.1328 H       1  UNL1        0.2922
     21 C          62.2498   85.5811   10.4167 C.ar    1  UNL1        0.0059
     22 C          63.0188   85.0732    9.2332 C.ar    1  UNL1        0.0003
     23 C          62.4506   85.2158    7.8523 C.ar    1  UNL1        0.0031
     24 C          61.1135   85.8662    7.6549 C.ar    1  UNL1        0.0366
     25 C          60.3445   86.3740    8.8384 C.ar    1  UNL1        0.1337
     26 O          59.0073   87.0244    8.6411 O.3     1  UNL1       -0.5055
     27 C          60.9126   86.2315   10.2193 C.ar    1  UNL1        0.0367
     28 H          58.6524   87.1135    7.7785 H       1  UNL1        0.2922
@<TRIPOS>BOND
     1    13    14    1
     2    14    15   ar
     3    15    16   ar
     4    16    17   ar
     5    17    18   ar
     6    18     1    1
     7     1     2   ar
     8     2     3   ar
     9     3     4   ar
    10     4     5   ar
    11     5    21    1
    12    21    22   ar
    13    22    23   ar
    14    23    24   ar
    15    24    25   ar
    16    25    26    1
    17    25    27   ar
    18     5     6   ar
    19     6     7    1
    20     6     8   ar
    21     8     9   ar
    22     9    10   ar
    23    10    11   ar
    24    18    19   ar
    25    19    14   ar
    26    11     1   ar
    27    10     4   ar
    28    27    21   ar
    29    13    20    1
    30    26    28    1
    31     7    12    1
@<TRIPOS>MOLECULE
*****
 28 31 0 0 0
SMALL
GASTEIGER

@<TRIPOS>ATOM
      1 C          63.3118   86.0772   13.2827 C.ar    1  UNL1        0.0001
      2 C          64.1409   86.7256   14.3514 C.ar    1  UNL1        0.0000
      3 C          64.4609   88.1887   14.2681 C.ar    1  UNL1        0.0001
      4 C          63.9519   89.0034   13.1160 C.ar    1  UNL1        0.0029
      5 C          64.2719   90.4665   13.0327 C.ar    1  UNL1        0.0338
      6 C          63.7629   91.2812   11.8807 C.ar    1  UNL1        0.1336
      7 O          64.0829   92.7442   11.7974 O.3     1  UNL1       -0.5055
      8 C          62.9337   90.6327   10.8120 C.ar    1  UNL1        0.0366
      9 C          62.6137   89.1696   10.8953 C.ar    1  UNL1        0.0031
     10 C          63.1228   88.3550   12.0474 C.ar    1  UNL1        0.0002
     11 C          62.8027   86.8919   12.1307 C.ar    1  UNL1        0.0000
     12 H          64.6008   93.1493   12.4649 H       1  UNL1        0.2922
     13 O          63.0441   81.3949   11.0456 O.3     1  UNL1       -0.5055
     14 C          62.8579   82.2730   12.2475 C.ar    1  UNL1        0.1337
     15 C          62.3517   81.6879   13.5326 C.ar    1  UNL1        0.0366
     16 C          62.1655   82.5659   14.7344 C.ar    1  UNL1        0.0031
     17 C          62.4855   84.0291   14.6511 C.ar    1  UNL1        0.0002
     18 C          62.9918   84.6141   13.3660 C.ar    1  UNL1        0.0030
     19 C          63.1779   83.7360   12.1642 C.ar    1  UNL1        0.0366
     20 H          62.8442   80.4810   11.0977 H       1  UNL1        0.2922
     21 C          65.1010   91.1149   14.1014 C.ar    1  UNL1        0.0059
     22 C          66.5903   91.2030   13.9453 C.ar    1  UNL1        0.0003
     23 C          67.4193   91.8515   15.0141 C.ar    1  UNL1        0.0031
     24 C          66.7592   92.4117   16.2389 C.ar    1  UNL1        0.0366
     25 C          65.2699   92.3236   16.3950 C.ar    1  UNL1        0.1337
     26 O          64.6098   92.8839   17.6198 O.3     1  UNL1       -0.5055
     27 C          64.4408   91.6752   15.3263 C.ar    1  UNL1        0.0367
     28 H          65.1277   93.2889   18.2874 H       1  UNL1        0.2922
@<TRIPOS>BOND
     1    13    14    1
     2    14    15   ar
     3    15    16   ar
     4    16    17   ar
     5    17    18   ar
     6    18     1    1
     7     1     2   ar
     8     2     3   ar
     9     3     4   ar
    10     4     5   ar
    11     5    21    1
    12    21    22   ar
    13    22    23   ar
    14    23    24   ar
    15    24    25   ar
    16    25    26    1
    17    25    27   ar
    18     5     6   ar
    19     6     7    1
    20     6     8   ar
    21     8     9   ar
    22     9    10   ar
    23    10    11   ar
    24    18    19   ar
    25    19    14   ar
    26    11     1   ar
    27    10     4   ar
    28    27    21   ar
    29    13    20    1
    30    26    28    1
    31     7    12    1
@<TRIPOS>MOLECULE
*****
 28 31 0 0 0
SMALL
GASTEIGER

@<TRIPOS>ATOM
      1 C          62.9216   84.9176   12.2476 C.ar    1  UNL1        0.0001
      2 C          63.5965   85.6749   13.3526 C.ar    1  UNL1        0.0000
      3 C          63.6681   87.1722   13.3008 C.ar    1  UNL1        0.0001
      4 C          63.0647   87.9123   12.1440 C.ar    1  UNL1        0.0029
      5 C          63.1363   89.4098   12.0922 C.ar    1  UNL1        0.0338
      6 C          62.5330   90.1499   10.9353 C.ar    1  UNL1        0.1336
      7 O          62.6046   91.6472   10.8835 O.3     1  UNL1       -0.5055
      8 C          61.8581   89.3925    9.8303 C.ar    1  UNL1        0.0366
      9 C          61.7865   87.8952    9.8822 C.ar    1  UNL1        0.0031
     10 C          62.3898   87.1551   11.0390 C.ar    1  UNL1        0.0002
     11 C          62.3183   85.6577   11.0908 C.ar    1  UNL1        0.0000
     12 H          63.0262   92.1203   11.5737 H       1  UNL1        0.2922
     13 O          61.9225   80.5485   14.8769 O.3     1  UNL1       -0.5055
     14 C          62.3505   81.2357   13.6141 C.ar    1  UNL1        0.1337
     15 C          62.7068   80.4253   12.4031 C.ar    1  UNL1        0.0366
     16 C          63.1347   81.1125   11.1403 C.ar    1  UNL1        0.0031
     17 C          63.2063   82.6099   11.0885 C.ar    1  UNL1        0.0002
     18 C          62.8500   83.4202   12.2994 C.ar    1  UNL1        0.0030
     19 C          62.4221   82.7330   13.5623 C.ar    1  UNL1        0.0366
     20 H          61.8778   79.6132   14.9093 H       1  UNL1        0.2922
     21 C          63.8113   90.1670   13.1971 C.ar    1  UNL1        0.0059
     22 C          65.0585   90.9514   12.9159 C.ar    1  UNL1        0.0003
     23 C          65.7334   91.7087   14.0210 C.ar    1  UNL1        0.0031
     24 C          65.1611   91.6816   15.4072 C.ar    1  UNL1        0.0366
     25 C          63.9138   90.8972   15.6884 C.ar    1  UNL1        0.1337
     26 O          63.3414   90.8701   17.0746 O.3     1  UNL1       -0.5055
     27 C          63.2389   90.1400   14.5834 C.ar    1  UNL1        0.0367
     28 H          63.7630   91.3431   17.7649 H       1  UNL1        0.2922
@<TRIPOS>BOND
     1    13    14    1
     2    14    15   ar
     3    15    16   ar
     4    16    17   ar
     5    17    18   ar
     6    18     1    1
     7     1     2   ar
     8     2     3   ar
     9     3     4   ar
    10     4     5   ar
    11     5    21    1
    12    21    22   ar
    13    22    23   ar
    14    23    24   ar
    15    24    25   ar
    16    25    26    1
    17    25    27   ar
    18     5     6   ar
    19     6     7    1
    20     6     8   ar
    21     8     9   ar
    22     9    10   ar
    23    10    11   ar
    24    18    19   ar
    25    19    14   ar
    26    11     1   ar
    27    10     4   ar
    28    27    21   ar
    29    13    20    1
    30    26    28    1
    31     7    12    1
@<TRIPOS>MOLECULE
*****
 28 31 0 0 0
SMALL
GASTEIGER

@<TRIPOS>ATOM
      1 C          64.2355   89.4839   13.9385 C.ar    1  UNL1        0.0001
      2 C          64.4628   88.0557   14.3369 C.ar    1  UNL1        0.0000
      3 C          63.8848   86.9455   13.5105 C.ar    1  UNL1        0.0001
      4 C          63.0794   87.2633   12.2856 C.ar    1  UNL1        0.0029
      5 C          62.5013   86.1530   11.4591 C.ar    1  UNL1        0.0338
      6 C          61.6960   86.4708   10.2342 C.ar    1  UNL1        0.1336
      7 O          61.1179   85.3605    9.4077 O.3     1  UNL1       -0.5055
      8 C          61.4686   87.8990    9.8358 C.ar    1  UNL1        0.0366
      9 C          62.0467   89.0093   10.6623 C.ar    1  UNL1        0.0031
     10 C          62.8521   88.6914   11.8872 C.ar    1  UNL1        0.0002
     11 C          63.4301   89.8017   12.7137 C.ar    1  UNL1        0.0000
     12 H          61.2599   84.4684    9.6566 H       1  UNL1        0.2922
     13 O          68.0336   92.9127   14.8429 O.3     1  UNL1       -0.5055
     14 C          66.7126   92.3086   15.2172 C.ar    1  UNL1        0.1337
     15 C          65.9697   92.8149   16.4180 C.ar    1  UNL1        0.0366
     16 C          64.6487   92.2108   16.7923 C.ar    1  UNL1        0.0031
     17 C          64.0706   91.1004   15.9658 C.ar    1  UNL1        0.0002
     18 C          64.8136   90.5942   14.7650 C.ar    1  UNL1        0.0030
     19 C          66.1345   91.1983   14.3907 C.ar    1  UNL1        0.0366
     20 H          68.3947   93.6063   15.3591 H       1  UNL1        0.2922
     21 C          62.7287   84.7249   11.8575 C.ar    1  UNL1        0.0059
     22 C          63.3061   83.7538   10.8708 C.ar    1  UNL1        0.0003
     23 C          63.5334   82.3256   11.2692 C.ar    1  UNL1        0.0031
     24 C          63.1833   81.8686   12.6543 C.ar    1  UNL1        0.0366
     25 C          62.6059   82.8397   13.6410 C.ar    1  UNL1        0.1337
     26 O          62.2558   82.3826   15.0261 O.3     1  UNL1       -0.5055
     27 C          62.3786   84.2678   13.2426 C.ar    1  UNL1        0.0367
     28 H          62.3978   81.4905   15.2750 H       1  UNL1        0.2922
@<TRIPOS>BOND
     1    13    14    1
     2    14    15   ar
     3    15    16   ar
     4    16    17   ar
     5    17    18   ar
     6    18     1    1
     7     1     2   ar
     8     2     3   ar
     9     3     4   ar
    10     4     5   ar
    11     5    21    1
    12    21    22   ar
    13    22    23   ar
    14    23    24   ar
    15    24    25   ar
    16    25    26    1
    17    25    27   ar
    18     5     6   ar
    19     6     7    1
    20     6     8   ar
    21     8     9   ar
    22     9    10   ar
    23    10    11   ar
    24    18    19   ar
    25    19    14   ar
    26    11     1   ar
    27    10     4   ar
    28    27    21   ar
    29    13    20    1
    30    26    28    1
    31     7    12    1
@<TRIPOS>MOLECULE
*****
 28 31 0 0 0
SMALL
GASTEIGER

@<TRIPOS>ATOM
      1 C          62.9276   84.9491   12.5804 C.ar    1  UNL1        0.0001
      2 C          63.6062   85.7318   13.6652 C.ar    1  UNL1        0.0000
      3 C          63.7212   87.2232   13.5542 C.ar    1  UNL1        0.0001
      4 C          63.1575   87.9320   12.3585 C.ar    1  UNL1        0.0029
      5 C          63.2725   89.4235   12.2476 C.ar    1  UNL1        0.0338
      6 C          62.7088   90.1323   11.0518 C.ar    1  UNL1        0.1336
      7 O          62.8238   91.6238   10.9409 O.3     1  UNL1       -0.5055
      8 C          62.0301   89.3496    9.9670 C.ar    1  UNL1        0.0366
      9 C          61.9152   87.8582   10.0779 C.ar    1  UNL1        0.0031
     10 C          62.4788   87.1494   11.2737 C.ar    1  UNL1        0.0002
     11 C          62.3639   85.6580   11.3846 C.ar    1  UNL1        0.0000
     12 H          63.2477   92.1127   11.6185 H       1  UNL1        0.2922
     13 O          63.0502   80.2494   10.3673 O.3     1  UNL1       -0.5055
     14 C          62.8739   81.1078   11.5847 C.ar    1  UNL1        0.1337
     15 C          62.5826   80.4747   12.9130 C.ar    1  UNL1        0.0366
     16 C          62.4062   81.3330   14.1304 C.ar    1  UNL1        0.0031
     17 C          62.5213   82.8246   14.0195 C.ar    1  UNL1        0.0002
     18 C          62.8125   83.4576   12.6913 C.ar    1  UNL1        0.0030
     19 C          62.9889   82.5992   11.4739 C.ar    1  UNL1        0.0366
     20 H          62.9783   79.3177   10.4365 H       1  UNL1        0.2922
     21 C          63.9512   90.2061   13.3324 C.ar    1  UNL1        0.0059
     22 C          63.3843   90.2102   14.7212 C.ar    1  UNL1        0.0003
     23 C          64.0631   90.9928   15.8060 C.ar    1  UNL1        0.0031
     24 C          65.3086   91.7714   15.5021 C.ar    1  UNL1        0.0366
     25 C          65.8754   91.7674   14.1133 C.ar    1  UNL1        0.1337
     26 O          67.1209   92.5460   13.8093 O.3     1  UNL1       -0.5055
     27 C          65.1968   90.9848   13.0285 C.ar    1  UNL1        0.0367
     28 H          67.5449   93.0349   14.4870 H       1  UNL1        0.2922
@<TRIPOS>BOND
     1    13    14    1
     2    14    15   ar
     3    15    16   ar
     4    16    17   ar
     5    17    18   ar
     6    18     1    1
     7     1     2   ar
     8     2     3   ar
     9     3     4   ar
    10     4     5   ar
    11     5    21    1
    12    21    22   ar
    13    22    23   ar
    14    23    24   ar
    15    24    25   ar
    16    25    26    1
    17    25    27   ar
    18     5     6   ar
    19     6     7    1
    20     6     8   ar
    21     8     9   ar
    22     9    10   ar
    23    10    11   ar
    24    18    19   ar
    25    19    14   ar
    26    11     1   ar
    27    10     4   ar
    28    27    21   ar
    29    13    20    1
    30    26    28    1
    31     7    12    1
@<TRIPOS>MOLECULE
*****
 28 31 0 0 0
SMALL
GASTEIGER

@<TRIPOS>ATOM
      1 C          64.4357   89.6110   13.9071 C.ar    1  UNL1        0.0001
      2 C          64.5726   88.1762   14.3223 C.ar    1  UNL1        0.0000
      3 C          63.8975   87.0979   13.5277 C.ar    1  UNL1        0.0001
      4 C          63.0856   87.4544   12.3179 C.ar    1  UNL1        0.0029
      5 C          62.4105   86.3760   11.5232 C.ar    1  UNL1        0.0338
      6 C          61.5986   86.7326   10.3134 C.ar    1  UNL1        0.1336
      7 O          60.9235   85.6543    9.5188 O.3     1  UNL1       -0.5055
      8 C          61.4617   88.1675    9.8982 C.ar    1  UNL1        0.0366
      9 C          62.1368   89.2458   10.6929 C.ar    1  UNL1        0.0031
     10 C          62.9487   88.8893   11.9027 C.ar    1  UNL1        0.0002
     11 C          63.6238   89.9676   12.6973 C.ar    1  UNL1        0.0000
     12 H          61.0089   84.7579    9.7781 H       1  UNL1        0.2922
     13 O          64.2645   93.2407   17.6215 O.3     1  UNL1       -0.5055
     14 C          65.0251   92.5042   16.5589 C.ar    1  UNL1        0.1337
     15 C          66.4609   92.8461   16.2911 C.ar    1  UNL1        0.0366
     16 C          67.2216   92.1097   15.2285 C.ar    1  UNL1        0.0031
     17 C          66.5465   91.0313   14.4339 C.ar    1  UNL1        0.0002
     18 C          65.1108   90.6894   14.7018 C.ar    1  UNL1        0.0030
     19 C          64.3501   91.4259   15.7643 C.ar    1  UNL1        0.0366
     20 H          64.6861   93.9143   18.1179 H       1  UNL1        0.2922
     21 C          62.5473   84.9412   11.9384 C.ar    1  UNL1        0.0059
     22 C          62.2349   84.5353   13.3482 C.ar    1  UNL1        0.0003
     23 C          62.3717   83.1003   13.7634 C.ar    1  UNL1        0.0031
     24 C          62.8210   82.0714   12.7687 C.ar    1  UNL1        0.0366
     25 C          63.1334   82.4773   11.3589 C.ar    1  UNL1        0.1337
     26 O          63.5827   81.4483   10.3643 O.3     1  UNL1       -0.5055
     27 C          62.9966   83.9121   10.9437 C.ar    1  UNL1        0.0367
     28 H          63.6682   80.5520   10.6236 H       1  UNL1        0.2922
@<TRIPOS>BOND
     1    13    14    1
     2    14    15   ar
     3    15    16   ar
     4    16    17   ar
     5    17    18   ar
     6    18     1    1
     7     1     2   ar
     8     2     3   ar
     9     3     4   ar
    10     4     5   ar
    11     5    21    1
    12    21    22   ar
    13    22    23   ar
    14    23    24   ar
    15    24    25   ar
    16    25    26    1
    17    25    27   ar
    18     5     6   ar
    19     6     7    1
    20     6     8   ar
    21     8     9   ar
    22     9    10   ar
    23    10    11   ar
    24    18    19   ar
    25    19    14   ar
    26    11     1   ar
    27    10     4   ar
    28    27    21   ar
    29    13    20    1
    30    26    28    1
    31     7    12    1
@<TRIPOS>MOLECULE
*****
 28 31 0 0 0
SMALL
GASTEIGER

@<TRIPOS>ATOM
      1 C          63.3039   84.8681   14.2712 C.ar    1  UNL1        0.0001
      2 C          63.7469   85.7978   13.1806 C.ar    1  UNL1        0.0000
      3 C          63.9101   87.2618   13.4634 C.ar    1  UNL1        0.0001
      4 C          63.6303   87.7961   14.8368 C.ar    1  UNL1        0.0029
      5 C          63.7935   89.2602   15.1196 C.ar    1  UNL1        0.0338
      6 C          63.5136   89.7946   16.4930 C.ar    1  UNL1        0.1336
      7 O          63.6768   91.2586   16.7758 O.3     1  UNL1       -0.5055
      8 C          63.0705   88.8648   17.5835 C.ar    1  UNL1        0.0366
      9 C          62.9073   87.4008   17.3007 C.ar    1  UNL1        0.0031
     10 C          63.1872   86.8665   15.9273 C.ar    1  UNL1        0.0002
     11 C          63.0240   85.4025   15.6445 C.ar    1  UNL1        0.0000
     12 H          63.9536   91.8393   16.0945 H       1  UNL1        0.2922
     13 O          60.4207   80.5482   14.4309 O.3     1  UNL1       -0.5055
     14 C          61.6990   81.2441   14.0683 C.ar    1  UNL1        0.1337
     15 C          62.8142   80.4760   13.4228 C.ar    1  UNL1        0.0366
     16 C          64.0925   81.1719   13.0602 C.ar    1  UNL1        0.0031
     17 C          64.2557   82.6360   13.3430 C.ar    1  UNL1        0.0002
     18 C          63.1406   83.4041   13.9884 C.ar    1  UNL1        0.0030
     19 C          61.8623   82.7081   14.3510 C.ar    1  UNL1        0.0366
     20 H          60.3187   79.6337   14.2543 H       1  UNL1        0.2922
     21 C          64.2366   90.1899   14.0290 C.ar    1  UNL1        0.0059
     22 C          63.4052   90.3426   12.7899 C.ar    1  UNL1        0.0003
     23 C          63.8484   91.2723   11.6993 C.ar    1  UNL1        0.0031
     24 C          65.1228   92.0493   11.8479 C.ar    1  UNL1        0.0366
     25 C          65.9541   91.8966   13.0870 C.ar    1  UNL1        0.1337
     26 O          67.2286   92.6735   13.2357 O.3     1  UNL1       -0.5055
     27 C          65.5111   90.9669   14.1776 C.ar    1  UNL1        0.0367
     28 H          67.5054   93.2542   12.5544 H       1  UNL1        0.2922
@<TRIPOS>BOND
     1    13    14    1
     2    14    15   ar
     3    15    16   ar
     4    16    17   ar
     5    17    18   ar
     6    18     1    1
     7     1     2   ar
     8     2     3   ar
     9     3     4   ar
    10     4     5   ar
    11     5    21    1
    12    21    22   ar
    13    22    23   ar
    14    23    24   ar
    15    24    25   ar
    16    25    26    1
    17    25    27   ar
    18     5     6   ar
    19     6     7    1
    20     6     8   ar
    21     8     9   ar
    22     9    10   ar
    23    10    11   ar
    24    18    19   ar
    25    19    14   ar
    26    11     1   ar
    27    10     4   ar
    28    27    21   ar
    29    13    20    1
    30    26    28    1
    31     7    12    1
@<TRIPOS>MOLECULE
*****
 28 31 0 0 0
SMALL
GASTEIGER

@<TRIPOS>ATOM
      1 C          63.1521   84.5044   13.9128 C.ar    1  UNL1        0.0001
      2 C          63.5808   85.5545   12.9313 C.ar    1  UNL1        0.0000
      3 C          63.7425   86.9773   13.3780 C.ar    1  UNL1        0.0001
      4 C          63.4754   87.3499   14.8062 C.ar    1  UNL1        0.0029
      5 C          63.6371   88.7728   15.2529 C.ar    1  UNL1        0.0338
      6 C          63.3701   89.1455   16.6811 C.ar    1  UNL1        0.1336
      7 O          63.5317   90.5682   17.1278 O.3     1  UNL1       -0.5055
      8 C          62.9414   88.0953   17.6627 C.ar    1  UNL1        0.0366
      9 C          62.7797   86.6725   17.2160 C.ar    1  UNL1        0.0031
     10 C          63.0467   86.2998   15.7877 C.ar    1  UNL1        0.0002
     11 C          62.8851   84.8771   15.3411 C.ar    1  UNL1        0.0000
     12 H          63.7995   91.2242   16.5147 H       1  UNL1        0.2922
     13 O          63.2406   80.9355   10.1373 O.3     1  UNL1       -0.5055
     14 C          63.0347   81.2972   11.5784 C.ar    1  UNL1        0.1337
     15 C          62.6671   80.2360   12.5728 C.ar    1  UNL1        0.0366
     16 C          62.4612   80.5976   14.0139 C.ar    1  UNL1        0.0031
     17 C          62.6229   82.0205   14.4606 C.ar    1  UNL1        0.0002
     18 C          62.9904   83.0816   13.4662 C.ar    1  UNL1        0.0030
     19 C          63.1963   82.7199   12.0251 C.ar    1  UNL1        0.0366
     20 H          63.1396   80.0467    9.8582 H       1  UNL1        0.2922
     21 C          64.0658   89.8229   14.2714 C.ar    1  UNL1        0.0059
     22 C          63.2010   90.1410   13.0878 C.ar    1  UNL1        0.0003
     23 C          63.6298   91.1911   12.1062 C.ar    1  UNL1        0.0031
     24 C          64.9233   91.9232   12.3083 C.ar    1  UNL1        0.0366
     25 C          65.7881   91.6051   13.4919 C.ar    1  UNL1        0.1337
     26 O          67.0817   92.3371   13.6939 O.3     1  UNL1       -0.5055
     27 C          65.3594   90.5550   14.4734 C.ar    1  UNL1        0.0367
     28 H          67.3495   92.9931   13.0808 H       1  UNL1        0.2922
@<TRIPOS>BOND
     1    13    14    1
     2    14    15   ar
     3    15    16   ar
     4    16    17   ar
     5    17    18   ar
     6    18     1    1
     7     1     2   ar
     8     2     3   ar
     9     3     4   ar
    10     4     5   ar
    11     5    21    1
    12    21    22   ar
    13    22    23   ar
    14    23    24   ar
    15    24    25   ar
    16    25    26    1
    17    25    27   ar
    18     5     6   ar
    19     6     7    1
    20     6     8   ar
    21     8     9   ar
    22     9    10   ar
    23    10    11   ar
    24    18    19   ar
    25    19    14   ar
    26    11     1   ar
    27    10     4   ar
    28    27    21   ar
    29    13    20    1
    30    26    28    1
    31     7    12    1
