@<TRIPOS>MOLECULE
*****
 33 35 0 0 0
SMALL
GASTEIGER

@<TRIPOS>ATOM
      1 C          66.8147   92.7402   12.7631 C.3     1  UNL1        0.1371
      2 C          67.7321   93.1504   13.8767 C.3     1  UNL1        0.0274
      3 C          67.3825   92.8188   15.2972 C.3     1  UNL1        0.0265
      4 C          66.1155   92.0771   15.6042 C.3     1  UNL1        0.1104
      5 N          65.1980   91.6669   14.4906 N.ar    1  UNL1       -0.2804
      6 C          65.5476   91.9985   13.0701 C.ar    1  UNL1        0.1391
      7 N          64.6301   91.5882   11.9566 N.ar    1  UNL1       -0.2231
      8 C          63.3630   90.8465   12.2636 C.ar    1  UNL1        0.1740
      9 C          63.0134   90.5149   13.6841 C.ar    1  UNL1        0.2130
     10 O          61.7463   89.7730   13.9910 O.3     1  UNL1       -0.5006
     11 C          63.9309   90.9251   14.7976 C.ar    1  UNL1        0.2973
     12 O          63.5813   90.5935   16.2181 O.2     1  UNL1       -0.2636
     13 H          61.1732   89.5168   13.2954 H       1  UNL1        0.2924
     14 C          62.4455   90.4362   11.1500 C.2     1  UNL1        0.2671
     15 O          62.6155   91.0272    9.7819 O.2     1  UNL1       -0.2684
     16 N          61.3580   89.4350   11.4047 N.am    1  UNL1       -0.2956
     17 H          61.2464   89.0471   12.3026 H       1  UNL1        0.1501
     18 C          60.4405   89.0248   10.2912 C.3     1  UNL1        0.1166
     19 C          60.7969   87.8595    9.4165 C.ar    1  UNL1       -0.0024
     20 C          59.7940   87.3204    8.4400 C.ar    1  UNL1       -0.0003
     21 C          60.1504   86.1551    7.5653 C.ar    1  UNL1        0.0294
     22 C          61.5097   85.5290    7.6671 C.ar    1  UNL1        0.1401
     23 F          61.8661   84.3637    6.7923 F       1  UNL1       -0.2042
     24 C          62.5125   86.0681    8.6436 C.ar    1  UNL1        0.0294
     25 C          62.1561   87.2334    9.5183 C.ar    1  UNL1       -0.0003
     26 N          67.1643   93.0718   11.3426 N.3     1  UNL1       -0.1381
     27 C          67.7417   92.0167   10.4465 C.3     1  UNL1        0.1165
     28 S          66.9365   94.4586   10.8183 S.O2    1  UNL1        0.1025
     29 O          65.8429   94.6596   11.8250 O.2     1  UNL1       -0.1408
     30 O          68.0301   94.2576    9.8116 O.2     1  UNL1       -0.1408
     31 C          67.2134   96.2252    8.9335 C.3     1  UNL1        0.1161
     32 N          66.7087   95.8454   10.2940 N.3     1  UNL1       -0.1424
     33 C          65.9761   96.8524   11.1302 C.3     1  UNL1        0.1161
@<TRIPOS>BOND
     1    31    32    1
     2    32    33    1
     3    32    28    1
     4    28    29    2
     5    28    30    2
     6    28    26    1
     7    26    27    1
     8     1    26    1
     9     1     2    1
    10     2     3    1
    11     3     4    1
    12     4     5    1
    13     5     6   ar
    14     6     7   ar
    15     7     8   ar
    16     8    14    1
    17    14    15    2
    18    14    16   am
    19    16    18    1
    20    18    19    1
    21    19    20   ar
    22    20    21   ar
    23    21    22   ar
    24    22    23    1
    25    22    24   ar
    26    24    25   ar
    27     8     9   ar
    28     9    10    1
    29     9    11   ar
    30    11    12    2
    31     6     1    1
    32    25    19   ar
    33    11     5   ar
    34    16    17    1
    35    10    13    1
@<TRIPOS>MOLECULE
*****
 33 35 0 0 0
SMALL
GASTEIGER

@<TRIPOS>ATOM
      1 C          63.3210   85.7465   13.0676 C.3     1  UNL1        0.1371
      2 C          62.7578   84.4499   12.5661 C.3     1  UNL1        0.0274
      3 C          61.9349   84.4247   11.3122 C.3     1  UNL1        0.0265
      4 C          61.6752   85.6961   10.5599 C.3     1  UNL1        0.1104
      5 N          62.2384   86.9927   11.0614 N.ar    1  UNL1       -0.2804
      6 C          63.0613   87.0179   12.3152 C.ar    1  UNL1        0.1391
      7 N          63.6246   88.3146   12.8167 N.ar    1  UNL1       -0.2231
      8 C          63.3648   89.5860   12.0644 C.ar    1  UNL1        0.1740
      9 C          62.5419   89.5608   10.8105 C.ar    1  UNL1        0.2130
     10 O          62.2822   90.8323   10.0582 O.3     1  UNL1       -0.5006
     11 C          61.9787   88.2642   10.3090 C.ar    1  UNL1        0.2973
     12 O          61.1558   88.2390    9.0552 O.2     1  UNL1       -0.2636
     13 H          62.6340   91.6422   10.3714 H       1  UNL1        0.2924
     14 C          63.9281   90.8827   12.5659 C.2     1  UNL1        0.2671
     15 O          63.5666   91.3779   13.9348 O.2     1  UNL1       -0.2684
     16 N          64.8528   91.6842   11.6983 N.am    1  UNL1       -0.2956
     17 H          65.0900   91.3592   10.7998 H       1  UNL1        0.1501
     18 C          65.4160   92.9808   12.1997 C.3     1  UNL1        0.1166
     19 C          66.0387   93.9496   11.2387 C.ar    1  UNL1       -0.0024
     20 C          66.6918   93.4475    9.9851 C.ar    1  UNL1       -0.0003
     21 C          67.3145   94.4163    9.0241 C.ar    1  UNL1        0.0294
     22 C          67.2843   95.8871    9.3165 C.ar    1  UNL1        0.1401
     23 F          67.9070   96.8559    8.3555 F       1  UNL1       -0.2042
     24 C          66.6312   96.3892   10.5701 C.ar    1  UNL1        0.0294
     25 C          66.0085   95.4205   11.5311 C.ar    1  UNL1       -0.0003
     26 N          64.1440   85.7718   14.3214 N.3     1  UNL1       -0.1381
     27 C          65.4625   85.0581   14.3677 C.3     1  UNL1        0.1165
     28 S          63.6484   86.5107   15.5290 S.O2    1  UNL1        0.1025
     29 O          64.6329   87.6100   15.2604 O.2     1  UNL1       -0.1408
     30 O          62.6640   85.4113   15.7977 O.2     1  UNL1       -0.1408
     31 C          62.6776   86.4887   17.9389 C.3     1  UNL1        0.1161
     32 N          63.1529   87.2497   16.7367 N.3     1  UNL1       -0.1424
     33 C          63.1326   88.7495   16.7422 C.3     1  UNL1        0.1161
@<TRIPOS>BOND
     1    31    32    1
     2    32    33    1
     3    32    28    1
     4    28    29    2
     5    28    30    2
     6    28    26    1
     7    26    27    1
     8     1    26    1
     9     1     2    1
    10     2     3    1
    11     3     4    1
    12     4     5    1
    13     5     6   ar
    14     6     7   ar
    15     7     8   ar
    16     8    14    1
    17    14    15    2
    18    14    16   am
    19    16    18    1
    20    18    19    1
    21    19    20   ar
    22    20    21   ar
    23    21    22   ar
    24    22    23    1
    25    22    24   ar
    26    24    25   ar
    27     8     9   ar
    28     9    10    1
    29     9    11   ar
    30    11    12    2
    31     6     1    1
    32    25    19   ar
    33    11     5   ar
    34    16    17    1
    35    10    13    1
@<TRIPOS>MOLECULE
*****
 33 35 0 0 0
SMALL
GASTEIGER

@<TRIPOS>ATOM
      1 C          65.7116   92.5312   12.5280 C.3     1  UNL1        0.1371
      2 C          66.7790   93.3025   13.2461 C.3     1  UNL1        0.0274
      3 C          66.8640   93.2499   14.7428 C.3     1  UNL1        0.0265
      4 C          65.8817   92.4260   15.5213 C.3     1  UNL1        0.1104
      5 N          64.8143   91.6548   14.8032 N.ar    1  UNL1       -0.2804
      6 C          64.7292   91.7074   13.3065 C.ar    1  UNL1        0.1391
      7 N          63.6618   90.9360   12.5884 N.ar    1  UNL1       -0.2231
      8 C          62.6794   90.1121   13.3669 C.ar    1  UNL1        0.1740
      9 C          62.7645   90.0595   14.8636 C.ar    1  UNL1        0.2130
     10 O          61.7820   89.2356   15.6421 O.3     1  UNL1       -0.5006
     11 C          63.8318   90.8308   15.5817 C.ar    1  UNL1        0.2973
     12 O          63.9169   90.7782   17.0784 O.2     1  UNL1       -0.2636
     13 H          61.1153   88.7538   15.1935 H       1  UNL1        0.2924
     14 C          61.6120   89.3408   12.6488 C.2     1  UNL1        0.2671
     15 O          60.1660   89.6573   12.8916 O.2     1  UNL1       -0.2684
     16 N          61.9905   88.2530   11.6878 N.am    1  UNL1       -0.2956
     17 H          62.9396   88.0453   11.5285 H       1  UNL1        0.1501
     18 C          60.9232   87.4817   10.9697 C.3     1  UNL1        0.1166
     19 C          61.2618   86.7097    9.7290 C.ar    1  UNL1       -0.0024
     20 C          62.6185   86.0878    9.5795 C.ar    1  UNL1       -0.0003
     21 C          62.9572   85.3158    8.3389 C.ar    1  UNL1        0.0294
     22 C          61.9390   85.1657    7.2476 C.ar    1  UNL1        0.1401
     23 F          62.2776   84.3936    6.0069 F       1  UNL1       -0.2042
     24 C          60.5823   85.7876    7.3971 C.ar    1  UNL1        0.0294
     25 C          60.2437   86.5596    8.6378 C.ar    1  UNL1       -0.0003
     26 N          65.6265   92.5839   11.0313 N.3     1  UNL1       -0.1381
     27 C          64.4043   92.0685   10.3310 C.3     1  UNL1        0.1165
     28 S          66.7637   93.1518   10.2350 S.O2    1  UNL1        0.1025
     29 O          67.4837   91.8392   10.3269 O.2     1  UNL1       -0.1408
     30 O          66.0437   94.4645   10.1431 O.2     1  UNL1       -0.1408
     31 C          67.8285   95.1279    8.9267 C.3     1  UNL1        0.1161
     32 N          67.9010   93.7198    9.4386 N.3     1  UNL1       -0.1424
     33 C          69.1107   92.8797    9.1543 C.3     1  UNL1        0.1161
@<TRIPOS>BOND
     1    31    32    1
     2    32    33    1
     3    32    28    1
     4    28    29    2
     5    28    30    2
     6    28    26    1
     7    26    27    1
     8     1    26    1
     9     1     2    1
    10     2     3    1
    11     3     4    1
    12     4     5    1
    13     5     6   ar
    14     6     7   ar
    15     7     8   ar
    16     8    14    1
    17    14    15    2
    18    14    16   am
    19    16    18    1
    20    18    19    1
    21    19    20   ar
    22    20    21   ar
    23    21    22   ar
    24    22    23    1
    25    22    24   ar
    26    24    25   ar
    27     8     9   ar
    28     9    10    1
    29     9    11   ar
    30    11    12    2
    31     6     1    1
    32    25    19   ar
    33    11     5   ar
    34    16    17    1
    35    10    13    1
@<TRIPOS>MOLECULE
*****
 33 35 0 0 0
SMALL
GASTEIGER

@<TRIPOS>ATOM
      1 C          63.6033   84.7755   13.3349 C.3     1  UNL1        0.1371
      2 C          63.3334   83.3310   13.0341 C.3     1  UNL1        0.0274
      3 C          62.5471   82.9532   11.8138 C.3     1  UNL1        0.0265
      4 C          62.0309   84.0199   10.8943 C.3     1  UNL1        0.1104
      5 N          62.3008   85.4644   11.1951 N.ar    1  UNL1       -0.2804
      6 C          63.0871   85.8422   12.4154 C.ar    1  UNL1        0.1391
      7 N          63.3570   87.2868   12.7161 N.ar    1  UNL1       -0.2231
      8 C          62.8408   88.3535   11.7966 C.ar    1  UNL1        0.1740
      9 C          62.0545   87.9757   10.5763 C.ar    1  UNL1        0.2130
     10 O          61.5383   89.0425    9.6567 O.3     1  UNL1       -0.5006
     11 C          61.7846   86.5312   10.2755 C.ar    1  UNL1        0.2973
     12 O          60.9983   86.1534    9.0552 O.2     1  UNL1       -0.2636
     13 H          61.7069   89.9448    9.8446 H       1  UNL1        0.2924
     14 C          63.1107   89.7981   12.0973 C.2     1  UNL1        0.2671
     15 O          62.2525   90.8648   11.4847 O.2     1  UNL1       -0.2684
     16 N          64.2390   90.1758   13.0108 N.am    1  UNL1       -0.2956
     17 H          64.8023   89.4757   13.4129 H       1  UNL1        0.1501
     18 C          64.5090   91.6203   13.3115 C.3     1  UNL1        0.1166
     19 C          65.7374   92.0097   14.0791 C.ar    1  UNL1       -0.0024
     20 C          67.0745   92.0208   13.3993 C.ar    1  UNL1       -0.0003
     21 C          68.3029   92.4102   14.1670 C.ar    1  UNL1        0.0294
     22 C          68.1944   92.7885   15.6144 C.ar    1  UNL1        0.1401
     23 F          69.4229   93.1779   16.3820 F       1  UNL1       -0.2042
     24 C          66.8574   92.7774   16.2942 C.ar    1  UNL1        0.0294
     25 C          65.6289   92.3880   15.5266 C.ar    1  UNL1       -0.0003
     26 N          64.3896   85.1533   14.5552 N.3     1  UNL1       -0.1381
     27 C          65.7741   84.6112   14.7528 C.3     1  UNL1        0.1165
     28 S          63.7912   86.0731   15.5778 S.O2    1  UNL1        0.1025
     29 O          64.8414   87.0988   15.2696 O.2     1  UNL1       -0.1408
     30 O          62.7411   85.0474   15.8860 O.2     1  UNL1       -0.1408
     31 C          62.5444   86.4281   17.8294 C.3     1  UNL1        0.1161
     32 N          63.1929   86.9931   16.6005 N.3     1  UNL1       -0.1424
     33 C          63.2431   88.4779   16.3942 C.3     1  UNL1        0.1161
@<TRIPOS>BOND
     1    31    32    1
     2    32    33    1
     3    32    28    1
     4    28    29    2
     5    28    30    2
     6    28    26    1
     7    26    27    1
     8     1    26    1
     9     1     2    1
    10     2     3    1
    11     3     4    1
    12     4     5    1
    13     5     6   ar
    14     6     7   ar
    15     7     8   ar
    16     8    14    1
    17    14    15    2
    18    14    16   am
    19    16    18    1
    20    18    19    1
    21    19    20   ar
    22    20    21   ar
    23    21    22   ar
    24    22    23    1
    25    22    24   ar
    26    24    25   ar
    27     8     9   ar
    28     9    10    1
    29     9    11   ar
    30    11    12    2
    31     6     1    1
    32    25    19   ar
    33    11     5   ar
    34    16    17    1
    35    10    13    1
@<TRIPOS>MOLECULE
*****
 33 35 0 0 0
SMALL
GASTEIGER

@<TRIPOS>ATOM
      1 C          62.7569   84.8653   11.0421 C.3     1  UNL1        0.1371
      2 C          62.6260   83.4866   10.4660 C.3     1  UNL1        0.0274
      3 C          62.9396   82.2877   11.3112 C.3     1  UNL1        0.0265
      4 C          63.3841   82.4676   12.7325 C.3     1  UNL1        0.1104
      5 N          63.5149   83.8464   13.3086 N.ar    1  UNL1       -0.2804
      6 C          63.2013   85.0452   12.4633 C.ar    1  UNL1        0.1391
      7 N          63.3322   86.4240   13.0395 N.ar    1  UNL1       -0.2231
      8 C          63.7766   86.6039   14.4607 C.ar    1  UNL1        0.1740
      9 C          64.0903   85.4051   15.3060 C.ar    1  UNL1        0.2130
     10 O          64.5347   85.5850   16.7273 O.3     1  UNL1       -0.5006
     11 C          63.9594   84.0263   14.7299 C.ar    1  UNL1        0.2973
     12 O          64.2730   82.8275   15.5751 O.2     1  UNL1       -0.2636
     13 H          64.6165   86.4463   17.0871 H       1  UNL1        0.2924
     14 C          63.9075   87.9827   15.0369 C.2     1  UNL1        0.2671
     15 O          63.3302   88.2893   16.3869 O.2     1  UNL1       -0.2684
     16 N          64.6157   89.0548   14.2629 N.am    1  UNL1       -0.2956
     17 H          64.9945   88.8536   13.3768 H       1  UNL1        0.1501
     18 C          64.7465   90.4336   14.8389 C.3     1  UNL1        0.1166
     19 C          65.2451   91.5599   13.9829 C.ar    1  UNL1       -0.0024
     20 C          66.1096   92.6302   14.5804 C.ar    1  UNL1       -0.0003
     21 C          66.6081   93.7565   13.7243 C.ar    1  UNL1        0.0294
     22 C          66.2422   93.8125   12.2707 C.ar    1  UNL1        0.1401
     23 F          66.7407   94.9389   11.4146 F       1  UNL1       -0.2042
     24 C          65.3777   92.7422   11.6732 C.ar    1  UNL1        0.0294
     25 C          64.8792   91.6159   12.5293 C.ar    1  UNL1       -0.0003
     26 N          62.4433   86.0642   10.1969 N.3     1  UNL1       -0.1381
     27 C          62.8071   86.0719    8.7417 C.3     1  UNL1        0.1165
     28 S          61.7658   87.2554   10.8068 S.O2    1  UNL1        0.1025
     29 O          60.7987   86.3471   11.5065 O.2     1  UNL1       -0.1408
     30 O          62.7329   88.1637   10.1071 O.2     1  UNL1       -0.1408
     31 C          61.9078   89.5842   11.9498 C.3     1  UNL1        0.1161
     32 N          61.0883   88.4466   11.4168 N.3     1  UNL1       -0.1424
     33 C          59.5912   88.5001   11.4937 C.3     1  UNL1        0.1161
@<TRIPOS>BOND
     1    31    32    1
     2    32    33    1
     3    32    28    1
     4    28    29    2
     5    28    30    2
     6    28    26    1
     7    26    27    1
     8     1    26    1
     9     1     2    1
    10     2     3    1
    11     3     4    1
    12     4     5    1
    13     5     6   ar
    14     6     7   ar
    15     7     8   ar
    16     8    14    1
    17    14    15    2
    18    14    16   am
    19    16    18    1
    20    18    19    1
    21    19    20   ar
    22    20    21   ar
    23    21    22   ar
    24    22    23    1
    25    22    24   ar
    26    24    25   ar
    27     8     9   ar
    28     9    10    1
    29     9    11   ar
    30    11    12    2
    31     6     1    1
    32    25    19   ar
    33    11     5   ar
    34    16    17    1
    35    10    13    1
@<TRIPOS>MOLECULE
*****
 33 35 0 0 0
SMALL
GASTEIGER

@<TRIPOS>ATOM
      1 C          64.5825   90.9427   15.0139 C.3     1  UNL1        0.1371
      2 C          65.6413   91.8092   15.6285 C.3     1  UNL1        0.0274
      3 C          66.3522   92.8318   14.7925 C.3     1  UNL1        0.0265
      4 C          66.0043   92.9878   13.3418 C.3     1  UNL1        0.1104
      5 N          64.9455   92.1212   12.7271 N.ar    1  UNL1       -0.2804
      6 C          64.2346   91.0987   13.5632 C.ar    1  UNL1        0.1391
      7 N          63.1757   90.2320   12.9485 N.ar    1  UNL1       -0.2231
      8 C          62.8277   90.3880   11.4978 C.ar    1  UNL1        0.1740
      9 C          63.5386   91.4106   10.6617 C.ar    1  UNL1        0.2130
     10 O          63.1906   91.5666    9.2110 O.3     1  UNL1       -0.5006
     11 C          64.5975   92.2772   11.2764 C.ar    1  UNL1        0.2973
     12 O          65.3083   93.2998   10.4403 O.2     1  UNL1       -0.2636
     13 H          62.5292   91.0252    8.8270 H       1  UNL1        0.2924
     14 C          61.7688   89.5214   10.8830 C.2     1  UNL1        0.2671
     15 O          60.6839   90.1388   10.0514 O.2     1  UNL1       -0.2684
     16 N          61.7949   88.0374   11.1000 N.am    1  UNL1       -0.2956
     17 H          62.5071   87.6322   11.6459 H       1  UNL1        0.1501
     18 C          60.7361   87.1708   10.4853 C.3     1  UNL1        0.1166
     19 C          61.0320   86.3991    9.2336 C.ar    1  UNL1       -0.0024
     20 C          59.9579   86.1956    8.2065 C.ar    1  UNL1       -0.0003
     21 C          60.2537   85.4239    6.9547 C.ar    1  UNL1        0.0294
     22 C          61.6236   84.8556    6.7300 C.ar    1  UNL1        0.1401
     23 F          61.9194   84.0839    5.4783 F       1  UNL1       -0.2042
     24 C          62.6976   85.0591    7.7571 C.ar    1  UNL1        0.0294
     25 C          62.4018   85.8308    9.0089 C.ar    1  UNL1       -0.0003
     26 N          63.8716   89.9201   15.8499 N.3     1  UNL1       -0.1381
     27 C          63.1284   90.3439   17.0819 C.3     1  UNL1        0.1165
     28 S          63.9039   88.4737   15.4539 S.O2    1  UNL1        0.1025
     29 O          62.7368   88.2007   16.3557 O.2     1  UNL1       -0.1408
     30 O          65.0711   88.7467   14.5522 O.2     1  UNL1       -0.1408
     31 C          63.9893   86.6477   13.6077 C.3     1  UNL1        0.1161
     32 N          63.9362   87.0272   15.0579 N.3     1  UNL1       -0.1424
     33 C          63.9155   85.9604   16.1121 C.3     1  UNL1        0.1161
@<TRIPOS>BOND
     1    31    32    1
     2    32    33    1
     3    32    28    1
     4    28    29    2
     5    28    30    2
     6    28    26    1
     7    26    27    1
     8     1    26    1
     9     1     2    1
    10     2     3    1
    11     3     4    1
    12     4     5    1
    13     5     6   ar
    14     6     7   ar
    15     7     8   ar
    16     8    14    1
    17    14    15    2
    18    14    16   am
    19    16    18    1
    20    18    19    1
    21    19    20   ar
    22    20    21   ar
    23    21    22   ar
    24    22    23    1
    25    22    24   ar
    26    24    25   ar
    27     8     9   ar
    28     9    10    1
    29     9    11   ar
    30    11    12    2
    31     6     1    1
    32    25    19   ar
    33    11     5   ar
    34    16    17    1
    35    10    13    1
@<TRIPOS>MOLECULE
*****
 33 35 0 0 0
SMALL
GASTEIGER

@<TRIPOS>ATOM
      1 C          62.6894   84.8167   11.1949 C.3     1  UNL1        0.1371
      2 C          62.5626   83.4430   10.6060 C.3     1  UNL1        0.0274
      3 C          62.9135   82.2389   11.4289 C.3     1  UNL1        0.0265
      4 C          63.3912   82.4086   12.8406 C.3     1  UNL1        0.1104
      5 N          63.5180   83.7823   13.4294 N.ar    1  UNL1       -0.2804
      6 C          63.1671   84.9864   12.6066 C.ar    1  UNL1        0.1391
      7 N          63.2939   86.3601   13.1955 N.ar    1  UNL1       -0.2231
      8 C          63.7716   86.5297   14.6072 C.ar    1  UNL1        0.1740
      9 C          64.1225   85.3257   15.4301 C.ar    1  UNL1        0.2130
     10 O          64.6002   85.4954   16.8419 O.3     1  UNL1       -0.5006
     11 C          63.9957   83.9520   14.8412 C.ar    1  UNL1        0.2973
     12 O          64.3466   82.7479   15.6641 O.2     1  UNL1       -0.2636
     13 H          64.6794   86.3535   17.2097 H       1  UNL1        0.2924
     14 C          63.8984   87.9035   15.1962 C.2     1  UNL1        0.2671
     15 O          63.3637   88.1831   16.5695 O.2     1  UNL1       -0.2684
     16 N          64.5599   88.9977   14.4118 N.am    1  UNL1       -0.2956
     17 H          64.9108   88.8141   13.5104 H       1  UNL1        0.1501
     18 C          64.6867   90.3714   15.0007 C.3     1  UNL1        0.1166
     19 C          65.1901   91.5052   14.1575 C.ar    1  UNL1       -0.0024
     20 C          64.7934   91.6003   12.7141 C.ar    1  UNL1       -0.0003
     21 C          65.2969   92.7342   11.8710 C.ar    1  UNL1        0.0294
     22 C          66.1970   93.7730   12.4713 C.ar    1  UNL1        0.1401
     23 F          66.7004   94.9069   11.6282 F       1  UNL1       -0.2042
     24 C          66.5937   93.6780   13.9148 C.ar    1  UNL1        0.0294
     25 C          66.0903   92.5441   14.7579 C.ar    1  UNL1       -0.0003
     26 N          62.3385   86.0208   10.3720 N.3     1  UNL1       -0.1381
     27 C          62.5485   87.3974   10.9296 C.3     1  UNL1        0.1165
     28 S          61.7775   85.8483    8.9917 S.O2    1  UNL1        0.1025
     29 O          63.1491   85.5313    8.4739 O.2     1  UNL1       -0.1408
     30 O          60.4059   86.1653    9.5095 O.2     1  UNL1       -0.1408
     31 C          59.9049   86.3078    7.2503 C.3     1  UNL1        0.1161
     32 N          61.2165   85.6758    7.6112 N.3     1  UNL1       -0.1424
     33 C          61.9671   84.8713    6.5917 C.3     1  UNL1        0.1161
@<TRIPOS>BOND
     1    31    32    1
     2    32    33    1
     3    32    28    1
     4    28    29    2
     5    28    30    2
     6    28    26    1
     7    26    27    1
     8     1    26    1
     9     1     2    1
    10     2     3    1
    11     3     4    1
    12     4     5    1
    13     5     6   ar
    14     6     7   ar
    15     7     8   ar
    16     8    14    1
    17    14    15    2
    18    14    16   am
    19    16    18    1
    20    18    19    1
    21    19    20   ar
    22    20    21   ar
    23    21    22   ar
    24    22    23    1
    25    22    24   ar
    26    24    25   ar
    27     8     9   ar
    28     9    10    1
    29     9    11   ar
    30    11    12    2
    31     6     1    1
    32    25    19   ar
    33    11     5   ar
    34    16    17    1
    35    10    13    1
@<TRIPOS>MOLECULE
*****
 33 35 0 0 0
SMALL
GASTEIGER

@<TRIPOS>ATOM
      1 C          62.8667   84.9653   10.9462 C.3     1  UNL1        0.1371
      2 C          62.8254   83.5755   10.3836 C.3     1  UNL1        0.0274
      3 C          63.1718   82.4036   11.2535 C.3     1  UNL1        0.0265
      4 C          63.5594   82.6216   12.6861 C.3     1  UNL1        0.1104
      5 N          63.6007   84.0114   13.2487 N.ar    1  UNL1       -0.2804
      6 C          63.2544   85.1833   12.3787 C.ar    1  UNL1        0.1391
      7 N          63.2957   86.5732   12.9414 N.ar    1  UNL1       -0.2231
      8 C          63.6834   86.7912   14.3739 C.ar    1  UNL1        0.1740
      9 C          64.0297   85.6193   15.2439 C.ar    1  UNL1        0.2130
     10 O          64.4174   85.8374   16.6764 O.3     1  UNL1       -0.5006
     11 C          63.9884   84.2295   14.6813 C.ar    1  UNL1        0.2973
     12 O          64.3348   83.0576   15.5512 O.2     1  UNL1       -0.2636
     13 H          64.4432   86.7056   17.0279 H       1  UNL1        0.2924
     14 C          63.7247   88.1811   14.9366 C.2     1  UNL1        0.2671
     15 O          63.3871   88.4167   16.3790 O.2     1  UNL1       -0.2684
     16 N          64.1036   89.3354   14.0568 N.am    1  UNL1       -0.2956
     17 H          64.3252   89.1808   13.1101 H       1  UNL1        0.1501
     18 C          64.1450   90.7253   14.6194 C.3     1  UNL1        0.1166
     19 C          65.4590   91.4306   14.7799 C.ar    1  UNL1       -0.0024
     20 C          66.4855   91.3616   13.6884 C.ar    1  UNL1       -0.0003
     21 C          67.7996   92.0670   13.8490 C.ar    1  UNL1        0.0294
     22 C          68.0871   92.8414   15.1010 C.ar    1  UNL1        0.1401
     23 F          69.4011   93.5468   15.2615 F       1  UNL1       -0.2042
     24 C          67.0605   92.9104   16.1925 C.ar    1  UNL1        0.0294
     25 C          65.7465   92.2050   16.0320 C.ar    1  UNL1       -0.0003
     26 N          62.5204   86.1372   10.0763 N.3     1  UNL1       -0.1381
     27 C          62.9067   86.1354    8.6269 C.3     1  UNL1        0.1165
     28 S          61.7878   87.3108   10.6557 S.O2    1  UNL1        0.1025
     29 O          60.7023   86.3950   11.1383 O.2     1  UNL1       -0.1408
     30 O          62.8733   88.2267   10.1732 O.2     1  UNL1       -0.1408
     31 C          61.7843   89.7690   11.4969 C.3     1  UNL1        0.1161
     32 N          61.0551   88.4845   11.2353 N.3     1  UNL1       -0.1424
     33 C          59.5934   88.3737   11.5530 C.3     1  UNL1        0.1161
@<TRIPOS>BOND
     1    31    32    1
     2    32    33    1
     3    32    28    1
     4    28    29    2
     5    28    30    2
     6    28    26    1
     7    26    27    1
     8     1    26    1
     9     1     2    1
    10     2     3    1
    11     3     4    1
    12     4     5    1
    13     5     6   ar
    14     6     7   ar
    15     7     8   ar
    16     8    14    1
    17    14    15    2
    18    14    16   am
    19    16    18    1
    20    18    19    1
    21    19    20   ar
    22    20    21   ar
    23    21    22   ar
    24    22    23    1
    25    22    24   ar
    26    24    25   ar
    27     8     9   ar
    28     9    10    1
    29     9    11   ar
    30    11    12    2
    31     6     1    1
    32    25    19   ar
    33    11     5   ar
    34    16    17    1
    35    10    13    1
@<TRIPOS>MOLECULE
*****
 33 35 0 0 0
SMALL
GASTEIGER

@<TRIPOS>ATOM
      1 C          62.8753   83.0364   12.6507 C.3     1  UNL1        0.1371
      2 C          63.1511   81.6762   12.0818 C.3     1  UNL1        0.0274
      3 C          63.3283   81.5039   10.6024 C.3     1  UNL1        0.0265
      4 C          63.2297   82.6917    9.6918 C.3     1  UNL1        0.1104
      5 N          62.9540   84.0519   10.2607 N.ar    1  UNL1       -0.2804
      6 C          62.7767   84.2243   11.7402 C.ar    1  UNL1        0.1391
      7 N          62.5009   85.5846   12.3090 N.ar    1  UNL1       -0.2231
      8 C          62.4024   86.7725   11.3985 C.ar    1  UNL1        0.1740
      9 C          62.5796   86.6001    9.9190 C.ar    1  UNL1        0.2130
     10 O          62.4810   87.7881    9.0084 O.3     1  UNL1       -0.5006
     11 C          62.8554   85.2399    9.3501 C.ar    1  UNL1        0.2973
     12 O          63.0326   85.0675    7.8706 O.2     1  UNL1       -0.2636
     13 H          62.3087   88.6378    9.3638 H       1  UNL1        0.2924
     14 C          62.1266   88.1328   11.9673 C.2     1  UNL1        0.2671
     15 O          60.7579   88.7340   11.8439 O.2     1  UNL1       -0.2684
     16 N          63.2195   88.8919   12.6596 N.am    1  UNL1       -0.2956
     17 H          64.1178   88.4973   12.7407 H       1  UNL1        0.1501
     18 C          62.9438   90.2521   13.2285 C.3     1  UNL1        0.1166
     19 C          64.0815   91.1299   13.6587 C.ar    1  UNL1       -0.0024
     20 C          64.4700   91.1988   15.1059 C.ar    1  UNL1       -0.0003
     21 C          65.6077   92.0765   15.5361 C.ar    1  UNL1        0.0294
     22 C          66.3570   92.8854   14.5191 C.ar    1  UNL1        0.1401
     23 F          67.4947   93.7632   14.9493 F       1  UNL1       -0.2042
     24 C          65.9685   92.8166   13.0720 C.ar    1  UNL1        0.0294
     25 C          64.8308   91.9388   12.6418 C.ar    1  UNL1       -0.0003
     26 N          62.6981   83.2088   14.1302 N.3     1  UNL1       -0.1381
     27 C          61.9943   82.1524   14.9294 C.3     1  UNL1        0.1165
     28 S          63.2247   84.4375   14.8106 S.O2    1  UNL1        0.1025
     29 O          64.6154   84.0830   14.3744 O.2     1  UNL1       -0.1408
     30 O          61.8340   84.7920   15.2468 O.2     1  UNL1       -0.1408
     31 C          64.8640   86.4524   14.8633 C.3     1  UNL1        0.1161
     32 N          63.7514   85.6663   15.4909 N.3     1  UNL1       -0.1424
     33 C          63.1653   86.1089   16.7988 C.3     1  UNL1        0.1161
@<TRIPOS>BOND
     1    31    32    1
     2    32    33    1
     3    32    28    1
     4    28    29    2
     5    28    30    2
     6    28    26    1
     7    26    27    1
     8     1    26    1
     9     1     2    1
    10     2     3    1
    11     3     4    1
    12     4     5    1
    13     5     6   ar
    14     6     7   ar
    15     7     8   ar
    16     8    14    1
    17    14    15    2
    18    14    16   am
    19    16    18    1
    20    18    19    1
    21    19    20   ar
    22    20    21   ar
    23    21    22   ar
    24    22    23    1
    25    22    24   ar
    26    24    25   ar
    27     8     9   ar
    28     9    10    1
    29     9    11   ar
    30    11    12    2
    31     6     1    1
    32    25    19   ar
    33    11     5   ar
    34    16    17    1
    35    10    13    1
