@<TRIPOS>MOLECULE
*****
 30 34 0 0 0
SMALL
GASTEIGER

@<TRIPOS>ATOM
      1 N          63.7851   85.6013   13.9315 N.ar    1  UNL1       -0.2076
      2 C          64.5561   86.0026   15.1541 C.ar    1  UNL1        0.1000
      3 C          64.7036   87.4952   15.1398 C.ar    1  UNL1        0.0248
      4 C          64.0239   88.0164   13.9084 C.ar    1  UNL1        0.0507
      5 C          63.8485   89.4057   13.3706 C.ar    1  UNL1        0.1331
      6 N          63.1055   89.6244   12.0861 N.ar    1  UNL1       -0.2306
      7 C          62.5378   88.4538   11.3393 C.ar    1  UNL1        0.0841
      8 C          61.7947   88.6726   10.0548 C.ar    1  UNL1        0.0192
      9 C          61.2271   87.5020    9.3081 C.ar    1  UNL1        0.0015
     10 C          61.4024   86.1128    9.8459 C.ar    1  UNL1        0.0001
     11 C          62.1455   85.8941   11.1304 C.ar    1  UNL1        0.0030
     12 C          62.7131   87.0646   11.8771 C.ar    1  UNL1        0.0353
     13 C          63.4562   86.8459   13.1617 C.ar    1  UNL1        0.0866
     14 N          64.4162   90.5762   14.1174 N.pl3   1  UNL1       -0.2904
     15 C          63.9645   90.8623   15.5188 C.3     1  UNL1        0.1092
     16 C          64.5322   92.0328   16.2655 C.3     1  UNL1        0.0904
     17 N          65.5516   92.9172   15.6108 N.3     1  UNL1       -0.2946
     18 C          66.0033   92.6311   14.2093 C.3     1  UNL1        0.0904
     19 C          65.4356   91.4606   13.4626 C.3     1  UNL1        0.1092
     20 H          66.3843   92.8926   16.1993 H       1  UNL1        0.1233
     21 O          62.1066   84.3505   14.2753 O.2     1  UNL1       -0.1476
     22 S          63.4091   84.2012   13.5465 S.O2    1  UNL1        0.0860
     23 O          64.7116   84.0518   12.8176 O.2     1  UNL1       -0.1476
     24 C          63.0332   82.8010   13.1613 C.ar    1  UNL1        0.1299
     25 C          62.4385   81.8765   14.1821 C.ar    1  UNL1        0.0205
     26 C          62.0626   80.4764   13.7971 C.ar    1  UNL1        0.0037
     27 C          62.2813   80.0007   12.3913 C.ar    1  UNL1        0.0297
     28 C          62.8759   80.9252   11.3707 C.ar    1  UNL1        0.1415
     29 F          63.0945   80.4496    9.9651 F       1  UNL1       -0.2041
     30 C          63.2518   82.3254   11.7558 C.ar    1  UNL1        0.0500
@<TRIPOS>BOND
     1    21    22    2
     2    22    23    2
     3    22    24    1
     4    24    25   ar
     5    25    26   ar
     6    26    27   ar
     7    27    28   ar
     8    28    29    1
     9    28    30   ar
    10    22     1    1
    11     1     2   ar
    12     2     3   ar
    13     3     4   ar
    14     4     5   ar
    15     5    14    1
    16    14    15    1
    17    15    16    1
    18    16    17    1
    19    17    18    1
    20    18    19    1
    21     5     6   ar
    22     6     7   ar
    23     7     8   ar
    24     8     9   ar
    25     9    10   ar
    26    10    11   ar
    27    11    12   ar
    28    12    13   ar
    29    30    24   ar
    30    13     1   ar
    31    13     4   ar
    32    19    14    1
    33    12     7   ar
    34    17    20    1
@<TRIPOS>MOLECULE
*****
 30 34 0 0 0
SMALL
GASTEIGER

@<TRIPOS>ATOM
      1 N          64.9317   90.6141   14.1776 N.ar    1  UNL1       -0.2076
      2 C          66.0284   91.5472   14.5979 C.ar    1  UNL1        0.1000
      3 C          66.2696   92.5138   13.4765 C.ar    1  UNL1        0.0248
      4 C          65.3221   92.1781   12.3632 C.ar    1  UNL1        0.0507
      5 C          65.1053   92.7897   11.0108 C.ar    1  UNL1        0.1331
      6 N          64.0618   92.2273   10.0918 N.ar    1  UNL1       -0.2306
      7 C          63.2349   91.0532   10.5251 C.ar    1  UNL1        0.0841
      8 C          62.1913   90.4908    9.6061 C.ar    1  UNL1        0.0192
      9 C          61.3645   89.3167   10.0395 C.ar    1  UNL1        0.0015
     10 C          61.5812   88.7050   11.3918 C.ar    1  UNL1        0.0001
     11 C          62.6248   89.2674   12.3108 C.ar    1  UNL1        0.0030
     12 C          63.4516   90.4415   11.8775 C.ar    1  UNL1        0.0353
     13 C          64.4952   91.0040   12.7965 C.ar    1  UNL1        0.0866
     14 N          65.9322   93.9639   10.5775 N.pl3   1  UNL1       -0.2904
     15 C          66.9826   93.7923    9.5206 C.3     1  UNL1        0.1092
     16 C          67.8094   94.9664    9.0873 C.3     1  UNL1        0.0904
     17 N          67.5859   96.3121    9.7110 N.3     1  UNL1       -0.2946
     18 C          66.5355   96.4838   10.7679 C.3     1  UNL1        0.0904
     19 C          65.7087   95.3096   11.2012 C.3     1  UNL1        0.1092
     20 H          67.3483   96.9521    8.9531 H       1  UNL1        0.1233
     21 O          63.4789   90.4565   15.7153 O.2     1  UNL1       -0.1476
     22 S          64.3702   89.4886   14.9950 S.O2    1  UNL1        0.0860
     23 O          65.2616   88.5208   14.2746 O.2     1  UNL1       -0.1476
     24 C          63.8087   88.3631   15.8122 C.ar    1  UNL1        0.1299
     25 C          63.0333   88.6580   17.0620 C.ar    1  UNL1        0.0205
     26 C          62.4718   87.5326   17.8794 C.ar    1  UNL1        0.0037
     27 C          62.6857   86.1123   17.4470 C.ar    1  UNL1        0.0297
     28 C          63.4611   85.8173   16.1973 C.ar    1  UNL1        0.1415
     29 F          63.6750   84.3971   15.7650 F       1  UNL1       -0.2041
     30 C          64.0226   86.9429   15.3799 C.ar    1  UNL1        0.0500
@<TRIPOS>BOND
     1    21    22    2
     2    22    23    2
     3    22    24    1
     4    24    25   ar
     5    25    26   ar
     6    26    27   ar
     7    27    28   ar
     8    28    29    1
     9    28    30   ar
    10    22     1    1
    11     1     2   ar
    12     2     3   ar
    13     3     4   ar
    14     4     5   ar
    15     5    14    1
    16    14    15    1
    17    15    16    1
    18    16    17    1
    19    17    18    1
    20    18    19    1
    21     5     6   ar
    22     6     7   ar
    23     7     8   ar
    24     8     9   ar
    25     9    10   ar
    26    10    11   ar
    27    11    12   ar
    28    12    13   ar
    29    30    24   ar
    30    13     1   ar
    31    13     4   ar
    32    19    14    1
    33    12     7   ar
    34    17    20    1
@<TRIPOS>MOLECULE
*****
 30 34 0 0 0
SMALL
GASTEIGER

@<TRIPOS>ATOM
      1 N          62.4433   89.0437   11.1019 N.ar    1  UNL1       -0.2076
      2 C          62.5721   90.5380   11.0777 C.ar    1  UNL1        0.1000
      3 C          63.3564   90.9552   12.2863 C.ar    1  UNL1        0.0248
      4 C          63.7125   89.7189   13.0574 C.ar    1  UNL1        0.0507
      5 C          64.4776   89.5162   14.3315 C.ar    1  UNL1        0.1331
      6 N          64.6784   88.1321   14.8737 N.ar    1  UNL1       -0.2306
      7 C          64.1141   86.9506   14.1417 C.ar    1  UNL1        0.0841
      8 C          64.3149   85.5666   14.6838 C.ar    1  UNL1        0.0192
      9 C          63.7505   84.3852   13.9518 C.ar    1  UNL1        0.0015
     10 C          62.9854   84.5879   12.6777 C.ar    1  UNL1        0.0001
     11 C          62.7846   85.9720   12.1355 C.ar    1  UNL1        0.0030
     12 C          63.3489   87.1534   12.8675 C.ar    1  UNL1        0.0353
     13 C          63.1481   88.5375   12.3254 C.ar    1  UNL1        0.0866
     14 N          65.0420   90.6976   15.0636 N.pl3   1  UNL1       -0.2904
     15 C          64.2544   91.3439   16.1644 C.3     1  UNL1        0.1092
     16 C          64.8188   92.5253   16.8964 C.3     1  UNL1        0.0904
     17 N          66.1707   93.0604   16.5274 N.3     1  UNL1       -0.2946
     18 C          66.9582   92.4140   15.4265 C.3     1  UNL1        0.0904
     19 C          66.3939   91.2326   14.6946 C.3     1  UNL1        0.1092
     20 H          66.7460   93.0122   17.3684 H       1  UNL1        0.1233
     21 O          60.4318   88.4502   10.7835 O.2     1  UNL1       -0.1476
     22 S          61.7343   88.2032   10.0817 S.O2    1  UNL1        0.0860
     23 O          63.0368   87.9563    9.3799 O.2     1  UNL1       -0.1476
     24 C          61.0253   87.3627    9.0614 C.ar    1  UNL1        0.1299
     25 C          59.5783   87.6148    8.7567 C.ar    1  UNL1        0.0205
     26 C          58.8692   86.7744    7.7365 C.ar    1  UNL1        0.0037
     27 C          59.6072   85.6819    7.0209 C.ar    1  UNL1        0.0297
     28 C          61.0541   85.4299    7.3256 C.ar    1  UNL1        0.1415
     29 F          61.7920   84.3374    6.6101 F       1  UNL1       -0.2041
     30 C          61.7632   86.2703    8.3459 C.ar    1  UNL1        0.0500
@<TRIPOS>BOND
     1    21    22    2
     2    22    23    2
     3    22    24    1
     4    24    25   ar
     5    25    26   ar
     6    26    27   ar
     7    27    28   ar
     8    28    29    1
     9    28    30   ar
    10    22     1    1
    11     1     2   ar
    12     2     3   ar
    13     3     4   ar
    14     4     5   ar
    15     5    14    1
    16    14    15    1
    17    15    16    1
    18    16    17    1
    19    17    18    1
    20    18    19    1
    21     5     6   ar
    22     6     7   ar
    23     7     8   ar
    24     8     9   ar
    25     9    10   ar
    26    10    11   ar
    27    11    12   ar
    28    12    13   ar
    29    30    24   ar
    30    13     1   ar
    31    13     4   ar
    32    19    14    1
    33    12     7   ar
    34    17    20    1
@<TRIPOS>MOLECULE
*****
 30 34 0 0 0
SMALL
GASTEIGER

@<TRIPOS>ATOM
      1 N          63.5883   90.4652   12.2116 N.ar    1  UNL1       -0.2076
      2 C          62.9368   91.2058   11.0816 C.ar    1  UNL1        0.1000
      3 C          62.1319   90.2218   10.2854 C.ar    1  UNL1        0.0248
      4 C          62.2860   88.8730   10.9234 C.ar    1  UNL1        0.0507
      5 C          61.7230   87.5273   10.5741 C.ar    1  UNL1        0.1331
      6 N          62.0601   86.3320   11.4152 N.ar    1  UNL1       -0.2306
      7 C          62.9603   86.4823   12.6057 C.ar    1  UNL1        0.0841
      8 C          63.2974   85.2870   13.4468 C.ar    1  UNL1        0.0192
      9 C          64.1975   85.4375   14.6372 C.ar    1  UNL1        0.0015
     10 C          64.7605   86.7832   14.9865 C.ar    1  UNL1        0.0001
     11 C          64.4234   87.9785   14.1454 C.ar    1  UNL1        0.0030
     12 C          63.5233   87.8281   12.9550 C.ar    1  UNL1        0.0353
     13 C          63.1861   89.0234   12.1138 C.ar    1  UNL1        0.0866
     14 N          60.8228   87.3769    9.3836 N.pl3   1  UNL1       -0.2904
     15 C          60.0144   88.5451    8.9023 C.3     1  UNL1        0.1092
     16 C          59.1143   88.3946    7.7119 C.3     1  UNL1        0.0904
     17 N          59.0226   87.0760    7.0028 N.3     1  UNL1       -0.2946
     18 C          59.8310   85.9078    7.4841 C.3     1  UNL1        0.0904
     19 C          60.7312   86.0583    8.6745 C.3     1  UNL1        0.1092
     20 H          59.2945   87.2431    6.0340 H       1  UNL1        0.1233
     21 O          63.3899   90.9269   14.2725 O.2     1  UNL1       -0.1476
     22 S          64.4847   91.0616   13.2560 S.O2    1  UNL1        0.0860
     23 O          65.5795   91.1962   12.2394 O.2     1  UNL1       -0.1476
     24 C          65.3812   91.6580   14.3003 C.ar    1  UNL1        0.1299
     25 C          64.8338   91.9928   15.6562 C.ar    1  UNL1        0.0205
     26 C          65.7301   92.5892   16.7006 C.ar    1  UNL1        0.0037
     27 C          67.1740   92.8508   16.3891 C.ar    1  UNL1        0.0297
     28 C          67.7214   92.5160   15.0333 C.ar    1  UNL1        0.1415
     29 F          69.1651   92.7776   14.7219 F       1  UNL1       -0.2041
     30 C          66.8249   91.9196   13.9889 C.ar    1  UNL1        0.0500
@<TRIPOS>BOND
     1    21    22    2
     2    22    23    2
     3    22    24    1
     4    24    25   ar
     5    25    26   ar
     6    26    27   ar
     7    27    28   ar
     8    28    29    1
     9    28    30   ar
    10    22     1    1
    11     1     2   ar
    12     2     3   ar
    13     3     4   ar
    14     4     5   ar
    15     5    14    1
    16    14    15    1
    17    15    16    1
    18    16    17    1
    19    17    18    1
    20    18    19    1
    21     5     6   ar
    22     6     7   ar
    23     7     8   ar
    24     8     9   ar
    25     9    10   ar
    26    10    11   ar
    27    11    12   ar
    28    12    13   ar
    29    30    24   ar
    30    13     1   ar
    31    13     4   ar
    32    19    14    1
    33    12     7   ar
    34    17    20    1
@<TRIPOS>MOLECULE
*****
 30 34 0 0 0
SMALL
GASTEIGER

@<TRIPOS>ATOM
      1 N          62.4792   88.6155   10.8087 N.ar    1  UNL1       -0.2076
      2 C          62.6359   90.1043   10.7129 C.ar    1  UNL1        0.1000
      3 C          63.3038   90.5817   11.9682 C.ar    1  UNL1        0.0248
      4 C          63.5599   89.3882   12.8399 C.ar    1  UNL1        0.0507
      5 C          64.1913   89.2508   14.1935 C.ar    1  UNL1        0.1331
      6 N          64.3131   87.8983   14.8306 N.ar    1  UNL1       -0.2306
      7 C          63.8034   86.6831   14.1139 C.ar    1  UNL1        0.0841
      8 C          63.9252   85.3306   14.7510 C.ar    1  UNL1        0.0192
      9 C          63.4155   84.1154   14.0343 C.ar    1  UNL1        0.0015
     10 C          62.7841   84.2528   12.6806 C.ar    1  UNL1        0.0001
     11 C          62.6623   85.6053   12.0436 C.ar    1  UNL1        0.0030
     12 C          63.1720   86.8204   12.7602 C.ar    1  UNL1        0.0353
     13 C          63.0503   88.1730   12.1232 C.ar    1  UNL1        0.0866
     14 N          64.7010   90.4661   14.9102 N.pl3   1  UNL1       -0.2904
     15 C          66.0525   91.0232   14.5741 C.3     1  UNL1        0.1092
     16 C          66.5620   92.2384   15.2907 C.3     1  UNL1        0.0904
     17 N          65.7202   92.8964   16.3434 N.3     1  UNL1       -0.2946
     18 C          64.3687   92.3392   16.6796 C.3     1  UNL1        0.0904
     19 C          63.8591   91.1241   15.9629 C.3     1  UNL1        0.1092
     20 H          65.5750   93.8607   16.0442 H       1  UNL1        0.1233
     21 O          63.1975   87.5638    9.1123 O.2     1  UNL1       -0.1476
     22 S          61.8601   87.7256    9.7720 S.O2    1  UNL1        0.0860
     23 O          60.5227   87.8875   10.4318 O.2     1  UNL1       -0.1476
     24 C          61.2409   86.8357    8.7353 C.ar    1  UNL1        0.1299
     25 C          59.7582   86.8662    8.5096 C.ar    1  UNL1        0.0205
     26 C          59.1389   85.9764    7.4730 C.ar    1  UNL1        0.0037
     27 C          60.0023   85.0561    6.6620 C.ar    1  UNL1        0.0297
     28 C          61.4849   85.0255    6.8877 C.ar    1  UNL1        0.1415
     29 F          62.3481   84.1052    6.0767 F       1  UNL1       -0.2041
     30 C          62.1042   85.9154    7.9244 C.ar    1  UNL1        0.0500
@<TRIPOS>BOND
     1    21    22    2
     2    22    23    2
     3    22    24    1
     4    24    25   ar
     5    25    26   ar
     6    26    27   ar
     7    27    28   ar
     8    28    29    1
     9    28    30   ar
    10    22     1    1
    11     1     2   ar
    12     2     3   ar
    13     3     4   ar
    14     4     5   ar
    15     5    14    1
    16    14    15    1
    17    15    16    1
    18    16    17    1
    19    17    18    1
    20    18    19    1
    21     5     6   ar
    22     6     7   ar
    23     7     8   ar
    24     8     9   ar
    25     9    10   ar
    26    10    11   ar
    27    11    12   ar
    28    12    13   ar
    29    30    24   ar
    30    13     1   ar
    31    13     4   ar
    32    19    14    1
    33    12     7   ar
    34    17    20    1
