@<TRIPOS>MOLECULE
*****
 24 25 0 0 0
SMALL
GASTEIGER

@<TRIPOS>ATOM
      1 C          64.3608   91.0956   13.5180 C.ar    1  UNL1        0.1466
      2 N          63.2173   90.5137   12.7412 N.ar    1  UNL1       -0.2017
      3 C          63.0588   90.8360   11.2848 C.ar    1  UNL1        0.2354
      4 N          64.0440   91.7403   10.6053 N.ar    1  UNL1       -0.2015
      5 C          65.1875   92.3222   11.3822 C.ar    1  UNL1        0.1498
      6 C          65.3460   91.9999   12.8386 C.ar    1  UNL1        0.1055
      7 N          66.4896   92.5818   13.6154 N.pl3   1  UNL1       -0.3526
      8 H          67.1362   93.1753   13.1694 H       1  UNL1        0.1425
      9 H          66.5936   92.3703   14.5713 H       1  UNL1        0.1425
     10 N          66.1728   93.2265   10.7027 N.pl3   1  UNL1       -0.2893
     11 C          65.9756   94.7130   10.7394 C.3     1  UNL1        0.1093
     12 C          66.9608   95.6173   10.0599 C.3     1  UNL1        0.0904
     13 N          68.1432   95.0351    9.3438 N.3     1  UNL1       -0.2946
     14 C          68.3403   93.5485    9.3071 C.3     1  UNL1        0.0904
     15 C          67.3552   92.6443    9.9865 C.3     1  UNL1        0.1093
     16 H          68.9759   95.4319    9.7792 H       1  UNL1        0.1233
     17 N          64.5193   90.7732   14.9744 N.pl3   1  UNL1       -0.3170
     18 H          65.3266   91.0629   15.4577 H       1  UNL1        0.1482
     19 C          63.4477   90.0096   15.6944 C.3     1  UNL1        0.0882
     20 C          63.0242   87.8911   17.1377 C.3     1  UNL1        0.0017
     21 C          63.5934   88.5318   15.9066 C.3     1  UNL1        0.0196
     22 C          64.3084   87.6948   14.8877 C.3     1  UNL1        0.0017
     23 C          61.9152   90.2541   10.5079 C.1     1  UNL1        0.1400
     24 N          60.7716   89.6722    9.7311 N.1     1  UNL1       -0.1876
@<TRIPOS>BOND
     1    20    21    1
     2    21    22    1
     3    21    19    1
     4    19    17    1
     5    17     1    1
     6     1     2   ar
     7     2     3   ar
     8     3    23    1
     9    23    24    3
    10     3     4   ar
    11     4     5   ar
    12     5    10    1
    13    10    11    1
    14    11    12    1
    15    12    13    1
    16    13    14    1
    17    14    15    1
    18     5     6   ar
    19     6     7    1
    20     6     1   ar
    21    15    10    1
    22    17    18    1
    23    13    16    1
    24     7     8    1
    25     7     9    1
@<TRIPOS>MOLECULE
*****
 24 25 0 0 0
SMALL
GASTEIGER

@<TRIPOS>ATOM
      1 C          64.5885   91.6332   12.7800 C.ar    1  UNL1        0.1466
      2 N          65.4178   91.5346   14.0259 N.ar    1  UNL1       -0.2017
      3 C          66.7042   92.2986   14.1331 C.ar    1  UNL1        0.2354
      4 N          67.1612   93.1613   12.9944 N.ar    1  UNL1       -0.2015
      5 C          66.3319   93.2599   11.7484 C.ar    1  UNL1        0.1498
      6 C          65.0455   92.4959   11.6412 C.ar    1  UNL1        0.1055
      7 N          64.2162   92.5946   10.3952 N.pl3   1  UNL1       -0.3526
      8 H          64.5162   93.1609    9.6477 H       1  UNL1        0.1425
      9 H          63.3719   92.0932   10.3248 H       1  UNL1        0.1425
     10 N          66.7890   94.1227   10.6096 N.pl3   1  UNL1       -0.2893
     11 C          66.5597   95.6044   10.6521 C.3     1  UNL1        0.1093
     12 C          67.0167   96.4671    9.5133 C.3     1  UNL1        0.0904
     13 N          67.7031   95.8480    8.3320 N.3     1  UNL1       -0.2946
     14 C          67.9325   94.3662    8.2894 C.3     1  UNL1        0.0904
     15 C          67.4754   93.5036    9.4282 C.3     1  UNL1        0.1093
     16 H          68.6195   96.2900    8.2589 H       1  UNL1        0.1233
     17 N          63.3021   90.8692   12.6727 N.pl3   1  UNL1       -0.3170
     18 H          62.4417   91.3374   12.7724 H       1  UNL1        0.1482
     19 C          63.3265   89.3920   12.4137 C.3     1  UNL1        0.0882
     20 C          62.0666   89.7255   10.1661 C.3     1  UNL1        0.0017
     21 C          62.5650   88.8212   11.2542 C.3     1  UNL1        0.0196
     22 C          62.3019   87.3462   11.1828 C.3     1  UNL1        0.0017
     23 C          67.5335   92.1998   15.3792 C.1     1  UNL1        0.1400
     24 N          68.3627   92.1011   16.6252 N.1     1  UNL1       -0.1876
@<TRIPOS>BOND
     1    20    21    1
     2    21    22    1
     3    21    19    1
     4    19    17    1
     5    17     1    1
     6     1     2   ar
     7     2     3   ar
     8     3    23    1
     9    23    24    3
    10     3     4   ar
    11     4     5   ar
    12     5    10    1
    13    10    11    1
    14    11    12    1
    15    12    13    1
    16    13    14    1
    17    14    15    1
    18     5     6   ar
    19     6     7    1
    20     6     1   ar
    21    15    10    1
    22    17    18    1
    23    13    16    1
    24     7     8    1
    25     7     9    1
@<TRIPOS>MOLECULE
*****
 24 25 0 0 0
SMALL
GASTEIGER

@<TRIPOS>ATOM
      1 C          62.8324   88.2275   11.9674 C.ar    1  UNL1        0.1466
      2 N          63.1013   86.8440   12.4809 N.ar    1  UNL1       -0.2017
      3 C          63.8568   86.6534   13.7626 C.ar    1  UNL1        0.2354
      4 N          64.3435   87.8463   14.5308 N.ar    1  UNL1       -0.2015
      5 C          64.0747   89.2297   14.0173 C.ar    1  UNL1        0.1498
      6 C          63.3192   89.4203   12.7356 C.ar    1  UNL1        0.1055
      7 N          63.0503   90.8039   12.2221 N.pl3   1  UNL1       -0.3526
      8 H          63.3698   91.5868   12.7263 H       1  UNL1        0.1425
      9 H          62.5544   90.9290   11.3808 H       1  UNL1        0.1425
     10 N          64.5614   90.4226   14.7855 N.pl3   1  UNL1       -0.2893
     11 C          63.7910   90.9140   15.9750 C.3     1  UNL1        0.1093
     12 C          64.2778   92.1070   16.7432 C.3     1  UNL1        0.0904
     13 N          65.5349   92.8085   16.3219 N.3     1  UNL1       -0.2946
     14 C          66.3053   92.3170   15.1323 C.3     1  UNL1        0.0904
     15 C          65.8186   91.1241   14.3641 C.3     1  UNL1        0.1093
     16 H          66.1711   92.7764   17.1184 H       1  UNL1        0.1233
     17 N          62.0769   88.4181   10.6856 N.pl3   1  UNL1       -0.3170
     18 H          62.2730   89.1915   10.1090 H       1  UNL1        0.1482
     19 C          61.0226   87.4302   10.2825 C.3     1  UNL1        0.0882
     20 C          62.5706   85.8989    8.8652 C.3     1  UNL1        0.0017
     21 C          61.2375   86.5498    9.0872 C.3     1  UNL1        0.0196
     22 C          60.1194   86.3202    8.1141 C.3     1  UNL1        0.0017
     23 C          64.1257   85.2699   14.2761 C.1     1  UNL1        0.1400
     24 N          64.3944   83.8864   14.7896 N.1     1  UNL1       -0.1876
@<TRIPOS>BOND
     1    20    21    1
     2    21    22    1
     3    21    19    1
     4    19    17    1
     5    17     1    1
     6     1     2   ar
     7     2     3   ar
     8     3    23    1
     9    23    24    3
    10     3     4   ar
    11     4     5   ar
    12     5    10    1
    13    10    11    1
    14    11    12    1
    15    12    13    1
    16    13    14    1
    17    14    15    1
    18     5     6   ar
    19     6     7    1
    20     6     1   ar
    21    15    10    1
    22    17    18    1
    23    13    16    1
    24     7     8    1
    25     7     9    1
@<TRIPOS>MOLECULE
*****
 24 25 0 0 0
SMALL
GASTEIGER

@<TRIPOS>ATOM
      1 C          62.4012   87.7810   10.9092 C.ar    1  UNL1        0.1466
      2 N          62.9643   88.8813   11.7590 N.ar    1  UNL1       -0.2017
      3 C          63.6068   88.5583   13.0753 C.ar    1  UNL1        0.2354
      4 N          63.6863   87.1350   13.5419 N.ar    1  UNL1       -0.2015
      5 C          63.1231   86.0346   12.6922 C.ar    1  UNL1        0.1498
      6 C          62.4806   86.3577   11.3758 C.ar    1  UNL1        0.1055
      7 N          61.9174   85.2573   10.5260 N.pl3   1  UNL1       -0.3526
      8 H          61.9696   84.3231   10.8323 H       1  UNL1        0.1425
      9 H          61.4957   85.4692    9.6621 H       1  UNL1        0.1425
     10 N          63.2025   84.6112   13.1587 N.pl3   1  UNL1       -0.2893
     11 C          62.3604   84.1519   14.3119 C.3     1  UNL1        0.1093
     12 C          62.4398   82.7284   14.7785 C.3     1  UNL1        0.0904
     13 N          63.3614   81.7644   14.0918 N.3     1  UNL1       -0.2946
     14 C          64.2035   82.2238   12.9386 C.3     1  UNL1        0.0904
     15 C          64.1241   83.6472   12.4721 C.3     1  UNL1        0.1093
     16 H          62.7826   80.9985   13.7471 H       1  UNL1        0.1233
     17 N          61.7586   88.1040    9.5929 N.pl3   1  UNL1       -0.3170
     18 H          62.3166   88.2444    8.7940 H       1  UNL1        0.1482
     19 C          60.2659   88.2132    9.4937 C.3     1  UNL1        0.0882
     20 C          59.0446   86.6350    7.8300 C.3     1  UNL1        0.0017
     21 C          59.5836   87.9913    8.1764 C.3     1  UNL1        0.0196
     22 C          59.4402   89.1257    7.2055 C.3     1  UNL1        0.0017
     23 C          64.1700   89.6587   13.9251 C.1     1  UNL1        0.1400
     24 N          64.7331   90.7591   14.7748 N.1     1  UNL1       -0.1876
@<TRIPOS>BOND
     1    20    21    1
     2    21    22    1
     3    21    19    1
     4    19    17    1
     5    17     1    1
     6     1     2   ar
     7     2     3   ar
     8     3    23    1
     9    23    24    3
    10     3     4   ar
    11     4     5   ar
    12     5    10    1
    13    10    11    1
    14    11    12    1
    15    12    13    1
    16    13    14    1
    17    14    15    1
    18     5     6   ar
    19     6     7    1
    20     6     1   ar
    21    15    10    1
    22    17    18    1
    23    13    16    1
    24     7     8    1
    25     7     9    1
@<TRIPOS>MOLECULE
*****
 24 25 0 0 0
SMALL
GASTEIGER

@<TRIPOS>ATOM
      1 C          62.8413   88.2599   12.0710 C.ar    1  UNL1        0.1466
      2 N          63.1191   86.8788   12.5861 N.ar    1  UNL1       -0.2017
      3 C          63.9035   86.6939   13.8511 C.ar    1  UNL1        0.2354
      4 N          64.4103   87.8900   14.6011 N.ar    1  UNL1       -0.2015
      5 C          64.1325   89.2711   14.0860 C.ar    1  UNL1        0.1498
      6 C          63.3480   89.4561   12.8210 C.ar    1  UNL1        0.1055
      7 N          63.0703   90.8373   12.3059 N.pl3   1  UNL1       -0.3526
      8 H          63.4029   91.6223   12.7981 H       1  UNL1        0.1425
      9 H          62.5554   90.9587   11.4756 H       1  UNL1        0.1425
     10 N          64.6392   90.4673   14.8360 N.pl3   1  UNL1       -0.2893
     11 C          63.8774   90.9895   16.0179 C.3     1  UNL1        0.1093
     12 C          64.3841   92.1857   16.7679 C.3     1  UNL1        0.0904
     13 N          65.6527   92.8596   16.3359 N.3     1  UNL1       -0.2946
     14 C          66.4145   92.3373   15.1540 C.3     1  UNL1        0.0904
     15 C          65.9078   91.1412   14.4040 C.3     1  UNL1        0.1093
     16 H          66.2885   92.8291   17.1329 H       1  UNL1        0.1233
     17 N          62.0569   88.4449   10.8059 N.pl3   1  UNL1       -0.3170
     18 H          62.5202   88.6776    9.9690 H       1  UNL1        0.1482
     19 C          60.5665   88.2755   10.8160 C.3     1  UNL1        0.0882
     20 C          59.7494   90.7333   11.0200 C.3     1  UNL1        0.0017
     21 C          59.6990   89.3054   11.4769 C.3     1  UNL1        0.0196
     22 C          58.7812   88.9075   12.5945 C.3     1  UNL1        0.0017
     23 C          64.1813   85.3127   14.3662 C.1     1  UNL1        0.1400
     24 N          64.4589   83.9315   14.8813 N.1     1  UNL1       -0.1876
@<TRIPOS>BOND
     1    20    21    1
     2    21    22    1
     3    21    19    1
     4    19    17    1
     5    17     1    1
     6     1     2   ar
     7     2     3   ar
     8     3    23    1
     9    23    24    3
    10     3     4   ar
    11     4     5   ar
    12     5    10    1
    13    10    11    1
    14    11    12    1
    15    12    13    1
    16    13    14    1
    17    14    15    1
    18     5     6   ar
    19     6     7    1
    20     6     1   ar
    21    15    10    1
    22    17    18    1
    23    13    16    1
    24     7     8    1
    25     7     9    1
@<TRIPOS>MOLECULE
*****
 24 25 0 0 0
SMALL
GASTEIGER

@<TRIPOS>ATOM
      1 C          63.6088   85.2973   13.5454 C.ar    1  UNL1        0.1466
      2 N          64.0481   86.5919   14.1626 N.ar    1  UNL1       -0.2017
      3 C          63.7168   87.8925   13.4929 C.ar    1  UNL1        0.2354
      4 N          62.9462   87.8986   12.2060 N.ar    1  UNL1       -0.2015
      5 C          62.5069   86.6039   11.5889 C.ar    1  UNL1        0.1498
      6 C          62.8382   85.3033   12.2586 C.ar    1  UNL1        0.1055
      7 N          62.3989   84.0086   11.6414 N.pl3   1  UNL1       -0.3526
      8 H          61.8931   84.0126   10.7967 H       1  UNL1        0.1425
      9 H          62.6163   83.1549   12.0809 H       1  UNL1        0.1425
     10 N          61.7363   86.6099   10.3019 N.pl3   1  UNL1       -0.2893
     11 C          62.2727   85.8853    9.1031 C.3     1  UNL1        0.1093
     12 C          61.5020   85.8913    7.8162 C.3     1  UNL1        0.0904
     13 N          60.1950   86.6219    7.7281 N.3     1  UNL1       -0.2946
     14 C          59.6585   87.3466    8.9270 C.3     1  UNL1        0.0904
     15 C          60.4292   87.3406   10.2139 C.3     1  UNL1        0.1093
     16 H          59.4908   85.9344    7.4602 H       1  UNL1        0.1233
     17 N          63.9401   83.9966   14.2152 N.pl3   1  UNL1       -0.3170
     18 H          64.8781   83.7076   14.2924 H       1  UNL1        0.1482
     19 C          62.8424   83.1363   14.7672 C.3     1  UNL1        0.0882
     20 C          63.6896   81.0105   13.5372 C.3     1  UNL1        0.0017
     21 C          62.5725   81.7881   14.1676 C.3     1  UNL1        0.0196
     22 C          61.1856   81.2177   14.1982 C.3     1  UNL1        0.0017
     23 C          64.1562   89.1872   14.1101 C.1     1  UNL1        0.1400
     24 N          64.5955   90.4818   14.7273 N.1     1  UNL1       -0.1876
@<TRIPOS>BOND
     1    20    21    1
     2    21    22    1
     3    21    19    1
     4    19    17    1
     5    17     1    1
     6     1     2   ar
     7     2     3   ar
     8     3    23    1
     9    23    24    3
    10     3     4   ar
    11     4     5   ar
    12     5    10    1
    13    10    11    1
    14    11    12    1
    15    12    13    1
    16    13    14    1
    17    14    15    1
    18     5     6   ar
    19     6     7    1
    20     6     1   ar
    21    15    10    1
    22    17    18    1
    23    13    16    1
    24     7     8    1
    25     7     9    1
@<TRIPOS>MOLECULE
*****
 24 25 0 0 0
SMALL
GASTEIGER

@<TRIPOS>ATOM
      1 C          63.9256   88.0308   13.6691 C.ar    1  UNL1        0.1466
      2 N          63.1783   88.5667   12.4840 N.ar    1  UNL1       -0.2017
      3 C          62.4510   87.6271   11.5685 C.ar    1  UNL1        0.2354
      4 N          62.4710   86.1517   11.8379 N.ar    1  UNL1       -0.2015
      5 C          63.2182   85.6158   13.0230 C.ar    1  UNL1        0.1498
      6 C          63.9455   86.5554   13.9385 C.ar    1  UNL1        0.1055
      7 N          64.6929   86.0195   15.1236 N.pl3   1  UNL1       -0.3526
      8 H          64.7060   85.0511   15.3005 H       1  UNL1        0.1425
      9 H          65.1702   86.6361   15.7246 H       1  UNL1        0.1425
     10 N          63.2382   84.1403   13.2925 N.pl3   1  UNL1       -0.2893
     11 C          62.2620   83.5416   14.2612 C.3     1  UNL1        0.1093
     12 C          62.2820   82.0661   14.5308 C.3     1  UNL1        0.0904
     13 N          63.2783   81.1894   13.8315 N.3     1  UNL1       -0.2946
     14 C          64.2545   81.7882   12.8628 C.3     1  UNL1        0.0904
     15 C          64.2345   83.2637   12.5933 C.3     1  UNL1        0.1093
     16 H          62.7442   80.4894   13.3166 H       1  UNL1        0.1233
     17 N          64.6529   88.9704   14.5846 N.pl3   1  UNL1       -0.3170
     18 H          65.3026   88.6190   15.2355 H       1  UNL1        0.1482
     19 C          64.3902   90.4452   14.5085 C.3     1  UNL1        0.0882
     20 C          65.0556   92.0452   12.5727 C.3     1  UNL1        0.0017
     21 C          65.3928   91.3531   13.8601 C.3     1  UNL1        0.0196
     22 C          66.7326   91.5690   14.4991 C.3     1  UNL1        0.0017
     23 C          61.7037   88.1631   10.3834 C.1     1  UNL1        0.1400
     24 N          60.9564   88.6989    9.1983 N.1     1  UNL1       -0.1876
@<TRIPOS>BOND
     1    20    21    1
     2    21    22    1
     3    21    19    1
     4    19    17    1
     5    17     1    1
     6     1     2   ar
     7     2     3   ar
     8     3    23    1
     9    23    24    3
    10     3     4   ar
    11     4     5   ar
    12     5    10    1
    13    10    11    1
    14    11    12    1
    15    12    13    1
    16    13    14    1
    17    14    15    1
    18     5     6   ar
    19     6     7    1
    20     6     1   ar
    21    15    10    1
    22    17    18    1
    23    13    16    1
    24     7     8    1
    25     7     9    1
@<TRIPOS>MOLECULE
*****
 24 25 0 0 0
SMALL
GASTEIGER

@<TRIPOS>ATOM
      1 C          61.9360   88.5904   11.2540 C.ar    1  UNL1        0.1466
      2 N          60.9514   88.4290   10.1340 N.ar    1  UNL1       -0.2017
      3 C          60.6052   87.0588    9.6313 C.ar    1  UNL1        0.2354
      4 N          61.2437   85.8500   10.2486 N.ar    1  UNL1       -0.2015
      5 C          62.2283   86.0114   11.3686 C.ar    1  UNL1        0.1498
      6 C          62.5744   87.3816   11.8713 C.ar    1  UNL1        0.1055
      7 N          63.5591   87.5430   12.9913 N.pl3   1  UNL1       -0.3526
      8 H          63.9782   86.7497   13.3965 H       1  UNL1        0.1425
      9 H          63.7863   88.4424   13.3213 H       1  UNL1        0.1425
     10 N          62.8669   84.8026   11.9860 N.pl3   1  UNL1       -0.2893
     11 C          63.6751   83.8657   11.1380 C.3     1  UNL1        0.1093
     12 C          64.3136   82.6569   11.7554 C.3     1  UNL1        0.0904
     13 N          64.1439   82.3850   13.2207 N.3     1  UNL1       -0.2946
     14 C          63.3357   83.3220   14.0687 C.3     1  UNL1        0.0904
     15 C          62.6972   84.5307   13.4513 C.3     1  UNL1        0.1093
     16 H          65.0799   82.3551   13.6250 H       1  UNL1        0.1233
     17 N          62.2821   89.9607   11.7566 N.pl3   1  UNL1       -0.3170
     18 H          61.9428   90.2651   12.6293 H       1  UNL1        0.1482
     19 C          63.1450   90.8670   10.9298 C.3     1  UNL1        0.0882
     20 C          65.1357   92.5262   10.7446 C.3     1  UNL1        0.0017
     21 C          64.2838   91.6060   11.5678 C.3     1  UNL1        0.0196
     22 C          64.5708   91.4247   13.0289 C.3     1  UNL1        0.0017
     23 C          59.6206   86.8974    8.5112 C.1     1  UNL1        0.1400
     24 N          58.6359   86.7360    7.3912 N.1     1  UNL1       -0.1876
@<TRIPOS>BOND
     1    20    21    1
     2    21    22    1
     3    21    19    1
     4    19    17    1
     5    17     1    1
     6     1     2   ar
     7     2     3   ar
     8     3    23    1
     9    23    24    3
    10     3     4   ar
    11     4     5   ar
    12     5    10    1
    13    10    11    1
    14    11    12    1
    15    12    13    1
    16    13    14    1
    17    14    15    1
    18     5     6   ar
    19     6     7    1
    20     6     1   ar
    21    15    10    1
    22    17    18    1
    23    13    16    1
    24     7     8    1
    25     7     9    1
@<TRIPOS>MOLECULE
*****
 24 25 0 0 0
SMALL
GASTEIGER

@<TRIPOS>ATOM
      1 C          63.5642   85.3386   14.0244 C.ar    1  UNL1        0.1466
      2 N          63.6101   83.8858   14.3946 N.ar    1  UNL1       -0.2017
      3 C          63.2185   82.8431   13.3898 C.ar    1  UNL1        0.2354
      4 N          62.7810   83.2533   12.0150 N.ar    1  UNL1       -0.2015
      5 C          62.7351   84.7061   11.6449 C.ar    1  UNL1        0.1498
      6 C          63.1267   85.7488   12.6496 C.ar    1  UNL1        0.1055
      7 N          63.0808   87.2017   12.2794 N.pl3   1  UNL1       -0.3526
      8 H          62.7936   87.4710   11.3770 H       1  UNL1        0.1425
      9 H          63.3379   87.8861   12.9388 H       1  UNL1        0.1425
     10 N          62.2975   85.1164   10.2699 N.pl3   1  UNL1       -0.2893
     11 C          61.0502   85.9301   10.0914 C.3     1  UNL1        0.1093
     12 C          60.6126   86.3404    8.7165 C.3     1  UNL1        0.0904
     13 N          61.4225   85.9369    7.5202 N.3     1  UNL1       -0.2946
     14 C          62.6699   85.1231    7.6987 C.3     1  UNL1        0.0904
     15 C          63.1074   84.7129    9.0736 C.3     1  UNL1        0.1093
     16 H          61.6976   86.7976    7.0469 H       1  UNL1        0.1233
     17 N          63.9559   86.3813   15.0292 N.pl3   1  UNL1       -0.3170
     18 H          64.3897   87.2134   14.7314 H       1  UNL1        0.1482
     19 C          63.6865   86.1562   16.4875 C.3     1  UNL1        0.0882
     20 C          63.0407   88.6554   16.7824 C.3     1  UNL1        0.0017
     21 C          63.0971   87.2561   17.3198 C.3     1  UNL1        0.0196
     22 C          62.5640   86.9567   18.6895 C.3     1  UNL1        0.0017
     23 C          63.2644   81.3902   13.7600 C.1     1  UNL1        0.1400
     24 N          63.3103   79.9373   14.1302 N.1     1  UNL1       -0.1876
@<TRIPOS>BOND
     1    20    21    1
     2    21    22    1
     3    21    19    1
     4    19    17    1
     5    17     1    1
     6     1     2   ar
     7     2     3   ar
     8     3    23    1
     9    23    24    3
    10     3     4   ar
    11     4     5   ar
    12     5    10    1
    13    10    11    1
    14    11    12    1
    15    12    13    1
    16    13    14    1
    17    14    15    1
    18     5     6   ar
    19     6     7    1
    20     6     1   ar
    21    15    10    1
    22    17    18    1
    23    13    16    1
    24     7     8    1
    25     7     9    1
