@<TRIPOS>MOLECULE
*****
 54 59 0 0 0
SMALL
GASTEIGER

@<TRIPOS>ATOM
      1 C          63.8013   89.3812   13.0859 C.3     1  UNL1        0.1686
      2 C          64.8156   90.1186   13.9088 C.3     1  UNL1        0.0437
      3 C          65.3561   91.4338   13.4312 C.3     1  UNL1        0.0071
      4 C          64.8821   92.0116   12.1307 C.3     1  UNL1        0.0404
      5 C          65.4226   93.3269   11.6530 C.3     1  UNL1        0.1687
      6 C          66.4369   94.0643   12.4760 C.3     1  UNL1        0.0437
      7 C          66.9109   93.4865   13.7766 C.3     1  UNL1        0.0049
      8 C          67.9253   94.2239   14.5995 C.3     1  UNL1        0.0156
      9 C          68.3992   93.6461   15.9001 C.3     1  UNL1        0.0508
     10 N          69.4136   94.3835   16.7231 N.3     1  UNL1       -0.3222
     11 C          67.8588   92.3308   16.3777 C.3     1  UNL1        0.0155
     12 C          66.8444   91.5934   15.5548 C.3     1  UNL1        0.0014
     13 C          66.3705   92.1712   14.2542 C.3     1  UNL1        0.0004
     14 C          65.8300   90.8560   14.7318 C.3     1  UNL1        0.0000
     15 C          63.8677   91.2742   11.3077 C.3     1  UNL1        0.0068
     16 C          63.2175   91.5930    9.9941 C.3     1  UNL1        0.0002
     17 C          62.2752   90.4748    9.6599 C.3     1  UNL1        0.0001
     18 C          62.3431   89.4650   10.7669 C.3     1  UNL1        0.0034
     19 C          63.3273   89.9590   11.7853 C.3     1  UNL1        0.0370
     20 C          62.7000   88.6413   12.1322 C.3     1  UNL1        0.0036
     21 H          69.6189   93.8499   17.5678 H       1  UNL1        0.1188
     22 H          69.0427   95.2981   16.9804 H       1  UNL1        0.1188
     23 C          61.5635   88.1856   10.8422 C.3     1  UNL1        0.0002
     24 C          60.2839   88.1318   11.6230 C.3     1  UNL1        0.0000
     25 C          62.0637   86.9600   10.1368 C.3     1  UNL1        0.0014
     26 C          61.5987   86.6542    8.7438 C.3     1  UNL1        0.0171
     27 C          60.2423   87.1057    8.2898 C.3     1  UNL1        0.0686
     28 N          59.9900   88.5576    8.0096 N.3     1  UNL1       -0.2975
     29 H          60.8947   88.9780    7.7970 H       1  UNL1        0.1232
     30 C          59.0567   88.9572    6.9055 C.3     1  UNL1        0.0686
     31 C          59.4988   89.9511    5.8726 C.3     1  UNL1        0.0188
     32 C          58.5444   91.0003    5.3845 C.3     1  UNL1        0.0226
     33 C          59.0689   92.2573    4.7560 C.3     1  UNL1        0.0871
     34 N          59.0419   92.4180    3.2649 N.pl3   1  UNL1       -0.3326
     35 H          58.1812   92.4362    2.7873 H       1  UNL1        0.1468
     36 C          60.3262   92.5509    2.5015 C.ar    1  UNL1        0.0476
     37 C          61.6371   92.3207    3.1932 C.ar    1  UNL1        0.0350
     38 C          62.9215   92.4536    2.4298 C.ar    1  UNL1        0.1001
     39 N          62.8949   92.8168    0.9747 N.ar    1  UNL1       -0.2437
     40 C          61.5839   93.0471    0.2830 C.ar    1  UNL1        0.0833
     41 C          61.5574   93.4104   -1.1721 C.ar    1  UNL1        0.0305
     42 C          60.2465   93.6407   -1.8639 C.ar    1  UNL1        0.0592
     43 CL         60.2199   94.0039   -3.3190 Cl      1  UNL1       -0.0822
     44 C          58.9622   93.5077   -1.1005 C.ar    1  UNL1        0.0115
     45 C          58.9887   93.1445    0.3546 C.ar    1  UNL1        0.0036
     46 C          60.2996   92.9142    1.0464 C.ar    1  UNL1        0.0309
     47 O          63.2608   88.0660   13.5635 O.3     1  UNL1       -0.4523
     48 C          64.7643   86.2917   14.7219 C.3     1  UNL1        0.1212
     49 C          63.8049   87.4411   14.8139 C.2     1  UNL1        0.3174
     50 O          63.3895   87.9657   16.1565 O.2     1  UNL1       -0.2501
     51 O          64.9486   93.9047   10.3524 O.3     1  UNL1       -0.4523
     52 C          65.6059   95.1314    9.7929 C.2     1  UNL1        0.3174
     53 C          65.0013   96.4827   10.0347 C.3     1  UNL1        0.1212
     54 O          66.8678   95.0068    8.9915 O.2     1  UNL1       -0.2501
@<TRIPOS>BOND
     1    48    49    1
     2    49    50    2
     3    49    47    1
     4     1    47    1
     5     1     2    1
     6     3     2    1
     7     3     4    1
     8     4     5    1
     9     5    51    1
    10    51    52    1
    11    52    53    1
    12    52    54    2
    13     5     6    1
    14     7     6    1
    15     7     8    1
    16     8     9    1
    17     9    10    1
    18     9    11    1
    19    11    12    1
    20    12    13    1
    21    13    14    1
    22     4    15    1
    23    15    16    1
    24    16    17    1
    25    18    17    1
    26    18    23    1
    27    23    24    1
    28    23    25    1
    29    25    26    1
    30    26    27    1
    31    27    28    1
    32    28    30    1
    33    30    31    1
    34    31    32    1
    35    32    33    1
    36    33    34    1
    37    34    36    1
    38    36    37   ar
    39    37    38   ar
    40    38    39   ar
    41    39    40   ar
    42    40    41   ar
    43    41    42   ar
    44    42    43    1
    45    42    44   ar
    46    44    45   ar
    47    45    46   ar
    48    18    19    1
    49    19    20    1
    50    19     1    1
    51    13     3    1
    52    19    15    1
    53    13     7    1
    54    46    36   ar
    55    46    40   ar
    56    10    21    1
    57    10    22    1
    58    28    29    1
    59    34    35    1
@<TRIPOS>MOLECULE
*****
 54 59 0 0 0
SMALL
GASTEIGER

@<TRIPOS>ATOM
      1 C          62.3793   86.7058   10.7952 C.3     1  UNL1        0.1686
      2 C          62.4457   85.2441   11.1253 C.3     1  UNL1        0.0437
      3 C          62.9050   84.8020   12.4831 C.3     1  UNL1        0.0071
      4 C          63.2980   85.8216   13.5107 C.3     1  UNL1        0.0404
      5 C          63.7573   85.3795   14.8685 C.3     1  UNL1        0.1687
      6 C          63.8237   83.9178   15.1986 C.3     1  UNL1        0.0437
      7 C          63.4308   82.8981   14.1710 C.3     1  UNL1        0.0049
      8 C          63.4972   81.4365   14.5011 C.3     1  UNL1        0.0156
      9 C          63.1043   80.4169   13.4735 C.3     1  UNL1        0.0508
     10 N          63.1707   78.9551   13.8036 N.3     1  UNL1       -0.3222
     11 C          62.6450   80.8590   12.1157 C.3     1  UNL1        0.0155
     12 C          62.5785   82.3207   11.7856 C.3     1  UNL1        0.0014
     13 C          62.9715   83.3402   12.8132 C.3     1  UNL1        0.0004
     14 C          62.5121   83.7823   11.4554 C.3     1  UNL1        0.0000
     15 C          63.2315   87.2833   13.1806 C.3     1  UNL1        0.0068
     16 C          63.5527   88.5091   13.9831 C.3     1  UNL1        0.0002
     17 C          63.2919   89.7089   13.1214 C.3     1  UNL1        0.0001
     18 C          62.8095   89.2244   11.7862 C.3     1  UNL1        0.0034
     19 C          62.7722   87.7254   11.8228 C.3     1  UNL1        0.0370
     20 C          62.3351   88.3148   10.5145 C.3     1  UNL1        0.0036
     21 H          62.8703   78.4101   12.9955 H       1  UNL1        0.1188
     22 H          62.5576   78.7569   14.5944 H       1  UNL1        0.1188
     23 C          62.4309   90.0877   10.6194 C.3     1  UNL1        0.0002
     24 C          63.4899   90.8355    9.8647 C.3     1  UNL1        0.0000
     25 C          60.9933   90.2031   10.2071 C.3     1  UNL1        0.0014
     26 C          60.6091   90.0252    8.7681 C.3     1  UNL1        0.0171
     27 C          59.4742   89.1153    8.4018 C.3     1  UNL1        0.0686
     28 N          59.1736   88.8345    6.9593 N.3     1  UNL1       -0.2975
     29 H          58.1783   88.6187    6.9026 H       1  UNL1        0.1232
     30 C          59.4504   89.8786    5.9185 C.3     1  UNL1        0.0686
     31 C          58.3577   90.8076    5.4791 C.3     1  UNL1        0.0188
     32 C          58.6979   92.1737    4.9615 C.3     1  UNL1        0.0226
     33 C          59.7075   92.3296    3.8631 C.3     1  UNL1        0.0871
     34 N          59.2610   92.7088    2.4822 N.pl3   1  UNL1       -0.3326
     35 H          58.3010   92.7928    2.2810 H       1  UNL1        0.1468
     36 C          60.2772   92.9600    1.4079 C.ar    1  UNL1        0.0476
     37 C          61.7323   93.0560    1.7595 C.ar    1  UNL1        0.0350
     38 C          62.7486   93.3072    0.6853 C.ar    1  UNL1        0.1001
     39 N          62.3098   93.4625   -0.7407 N.ar    1  UNL1       -0.2437
     40 C          60.8547   93.3666   -1.0923 C.ar    1  UNL1        0.0833
     41 C          60.4159   93.5219   -2.5183 C.ar    1  UNL1        0.0305
     42 C          58.9609   93.4260   -2.8700 C.ar    1  UNL1        0.0592
     43 CL         58.5221   93.5814   -4.2959 Cl      1  UNL1       -0.0822
     44 C          57.9447   93.1748   -1.7957 C.ar    1  UNL1        0.0115
     45 C          58.3835   93.0195   -0.3698 C.ar    1  UNL1        0.0036
     46 C          59.8385   93.1154   -0.0180 C.ar    1  UNL1        0.0309
     47 O          61.9199   87.1479    9.4374 O.3     1  UNL1       -0.4523
     48 C          62.7033   85.2982    7.7897 C.3     1  UNL1        0.1212
     49 C          61.6041   86.1282    8.3837 C.2     1  UNL1        0.3174
     50 O          60.1889   85.9384    7.9238 O.2     1  UNL1       -0.2501
     51 O          64.1502   86.3991   15.8961 O.3     1  UNL1       -0.4523
     52 C          63.1520   86.8576   16.9176 C.2     1  UNL1        0.3174
     53 C          63.0677   88.3095   17.2849 C.3     1  UNL1        0.1212
     54 O          62.2381   85.8641   17.5718 O.2     1  UNL1       -0.2501
@<TRIPOS>BOND
     1    48    49    1
     2    49    50    2
     3    49    47    1
     4     1    47    1
     5     1     2    1
     6     3     2    1
     7     3     4    1
     8     4     5    1
     9     5    51    1
    10    51    52    1
    11    52    53    1
    12    52    54    2
    13     5     6    1
    14     7     6    1
    15     7     8    1
    16     8     9    1
    17     9    10    1
    18     9    11    1
    19    11    12    1
    20    12    13    1
    21    13    14    1
    22     4    15    1
    23    15    16    1
    24    16    17    1
    25    18    17    1
    26    18    23    1
    27    23    24    1
    28    23    25    1
    29    25    26    1
    30    26    27    1
    31    27    28    1
    32    28    30    1
    33    30    31    1
    34    31    32    1
    35    32    33    1
    36    33    34    1
    37    34    36    1
    38    36    37   ar
    39    37    38   ar
    40    38    39   ar
    41    39    40   ar
    42    40    41   ar
    43    41    42   ar
    44    42    43    1
    45    42    44   ar
    46    44    45   ar
    47    45    46   ar
    48    18    19    1
    49    19    20    1
    50    19     1    1
    51    13     3    1
    52    19    15    1
    53    13     7    1
    54    46    36   ar
    55    46    40   ar
    56    10    21    1
    57    10    22    1
    58    28    29    1
    59    34    35    1
@<TRIPOS>MOLECULE
*****
 54 59 0 0 0
SMALL
GASTEIGER

@<TRIPOS>ATOM
      1 C          63.2162   90.0791   13.4694 C.3     1  UNL1        0.1686
      2 C          64.3507   90.6832   14.2425 C.3     1  UNL1        0.0437
      3 C          65.2723   91.6635   13.5793 C.3     1  UNL1        0.0071
      4 C          65.0593   92.0395   12.1430 C.3     1  UNL1        0.0404
      5 C          65.9809   93.0197   11.4797 C.3     1  UNL1        0.1687
      6 C          67.1154   93.6239   12.2528 C.3     1  UNL1        0.0437
      7 C          67.3284   93.2479   13.6893 C.3     1  UNL1        0.0049
      8 C          68.4630   93.8520   14.4624 C.3     1  UNL1        0.0156
      9 C          68.6759   93.4760   15.8988 C.3     1  UNL1        0.0508
     10 N          69.8105   94.0802   16.6720 N.3     1  UNL1       -0.3222
     11 C          67.7544   92.4958   16.5620 C.3     1  UNL1        0.0155
     12 C          66.6198   91.8916   15.7889 C.3     1  UNL1        0.0014
     13 C          66.4069   92.2676   14.3525 C.3     1  UNL1        0.0004
     14 C          65.4853   91.2874   15.0158 C.3     1  UNL1        0.0000
     15 C          63.9247   91.4353   11.3697 C.3     1  UNL1        0.0068
     16 C          63.4696   91.6130    9.9516 C.3     1  UNL1        0.0002
     17 C          62.2668   90.7425    9.7383 C.3     1  UNL1        0.0001
     18 C          61.9785   90.0270   11.0247 C.3     1  UNL1        0.0034
     19 C          63.0032   90.4551   12.0330 C.3     1  UNL1        0.0370
     20 C          62.0054   89.4665   12.5593 C.3     1  UNL1        0.0036
     21 H          69.8054   93.7151   17.6244 H       1  UNL1        0.1188
     22 H          69.7036   95.0943   16.6960 H       1  UNL1        0.1188
     23 C          60.8616   89.0540   11.2612 C.3     1  UNL1        0.0002
     24 C          59.5823   89.5193   11.8912 C.3     1  UNL1        0.0000
     25 C          61.0241   87.6157   10.8678 C.3     1  UNL1        0.0014
     26 C          60.1555   87.0289    9.7949 C.3     1  UNL1        0.0171
     27 C          60.6258   87.0199    8.3705 C.3     1  UNL1        0.0686
     28 N          60.7525   85.7212    7.6307 N.3     1  UNL1       -0.2975
     29 H          60.3487   85.8687    6.7057 H       1  UNL1        0.1232
     30 C          62.1046   85.1069    7.4199 C.3     1  UNL1        0.0686
     31 C          63.1850   85.3032    8.4418 C.3     1  UNL1        0.0188
     32 C          63.1709   84.5040    9.7111 C.3     1  UNL1        0.0226
     33 C          64.1326   83.3672    9.8923 C.3     1  UNL1        0.0871
     34 N          64.6842   83.0612   11.2532 N.pl3   1  UNL1       -0.3326
     35 H          65.6501   83.1468   11.4235 H       1  UNL1        0.1468
     36 C          63.7643   82.6247   12.3546 C.ar    1  UNL1        0.0476
     37 C          63.0274   81.3228   12.2447 C.ar    1  UNL1        0.0350
     38 C          62.1074   80.8863   13.3461 C.ar    1  UNL1        0.1001
     39 N          61.9244   81.7516   14.5575 N.ar    1  UNL1       -0.2437
     40 C          62.6613   83.0536   14.6675 C.ar    1  UNL1        0.0833
     41 C          62.4782   83.9190   15.8790 C.ar    1  UNL1        0.0305
     42 C          63.2151   85.2208   15.9890 C.ar    1  UNL1        0.0592
     43 CL         63.0320   86.0862   17.2005 Cl      1  UNL1       -0.0822
     44 C          64.1350   85.6573   14.8876 C.ar    1  UNL1        0.0115
     45 C          64.3181   84.7919   13.6761 C.ar    1  UNL1        0.0036
     46 C          63.5812   83.4901   13.5661 C.ar    1  UNL1        0.0309
     47 O          62.2946   89.0988   14.1327 O.3     1  UNL1       -0.4523
     48 C          63.1300   89.3045   16.5841 C.3     1  UNL1        0.1212
     49 C          62.0022   89.2182   15.5990 C.2     1  UNL1        0.3174
     50 O          60.5818   89.2514   16.0802 O.2     1  UNL1       -0.2501
     51 O          65.7679   93.3958   10.0433 O.3     1  UNL1       -0.4523
     52 C          66.8989   93.9700    9.2427 C.2     1  UNL1        0.3174
     53 C          68.0926   93.1224    8.9159 C.3     1  UNL1        0.1212
     54 O          66.8363   95.3919    8.7689 O.2     1  UNL1       -0.2501
@<TRIPOS>BOND
     1    48    49    1
     2    49    50    2
     3    49    47    1
     4     1    47    1
     5     1     2    1
     6     3     2    1
     7     3     4    1
     8     4     5    1
     9     5    51    1
    10    51    52    1
    11    52    53    1
    12    52    54    2
    13     5     6    1
    14     7     6    1
    15     7     8    1
    16     8     9    1
    17     9    10    1
    18     9    11    1
    19    11    12    1
    20    12    13    1
    21    13    14    1
    22     4    15    1
    23    15    16    1
    24    16    17    1
    25    18    17    1
    26    18    23    1
    27    23    24    1
    28    23    25    1
    29    25    26    1
    30    26    27    1
    31    27    28    1
    32    28    30    1
    33    30    31    1
    34    31    32    1
    35    32    33    1
    36    33    34    1
    37    34    36    1
    38    36    37   ar
    39    37    38   ar
    40    38    39   ar
    41    39    40   ar
    42    40    41   ar
    43    41    42   ar
    44    42    43    1
    45    42    44   ar
    46    44    45   ar
    47    45    46   ar
    48    18    19    1
    49    19    20    1
    50    19     1    1
    51    13     3    1
    52    19    15    1
    53    13     7    1
    54    46    36   ar
    55    46    40   ar
    56    10    21    1
    57    10    22    1
    58    28    29    1
    59    34    35    1
@<TRIPOS>MOLECULE
*****
 54 59 0 0 0
SMALL
GASTEIGER

@<TRIPOS>ATOM
      1 C          63.8564   89.3758   13.0795 C.3     1  UNL1        0.1686
      2 C          64.8373   90.1462   13.9127 C.3     1  UNL1        0.0437
      3 C          65.3520   91.4707   13.4323 C.3     1  UNL1        0.0071
      4 C          64.8858   92.0247   12.1186 C.3     1  UNL1        0.0404
      5 C          65.4006   93.3492   11.6382 C.3     1  UNL1        0.1687
      6 C          66.3814   94.1196   12.4714 C.3     1  UNL1        0.0437
      7 C          66.8476   93.5656   13.7851 C.3     1  UNL1        0.0049
      8 C          67.8285   94.3360   14.6183 C.3     1  UNL1        0.0156
      9 C          68.2947   93.7820   15.9320 C.3     1  UNL1        0.0508
     10 N          69.2756   94.5524   16.7653 N.3     1  UNL1       -0.3222
     11 C          67.7799   92.4575   16.4124 C.3     1  UNL1        0.0155
     12 C          66.7991   91.6871   15.5792 C.3     1  UNL1        0.0014
     13 C          66.3329   92.2411   14.2655 C.3     1  UNL1        0.0004
     14 C          65.8182   90.9166   14.7460 C.3     1  UNL1        0.0000
     15 C          63.9049   91.2543   11.2853 C.3     1  UNL1        0.0068
     16 C          63.2694   91.5447    9.9581 C.3     1  UNL1        0.0002
     17 C          62.3620   90.3998    9.6182 C.3     1  UNL1        0.0001
     18 C          62.4366   89.4017   10.7354 C.3     1  UNL1        0.0034
     19 C          63.3902   89.9298   11.7658 C.3     1  UNL1        0.0370
     20 C          62.7910   88.5995   12.1141 C.3     1  UNL1        0.0036
     21 H          69.4799   94.0317   17.6182 H       1  UNL1        0.1188
     22 H          68.8770   95.4594   17.0079 H       1  UNL1        0.1188
     23 C          61.6889   88.1034   10.8093 C.3     1  UNL1        0.0002
     24 C          62.4390   86.8134   10.9609 C.3     1  UNL1        0.0000
     25 C          60.1909   88.0953   10.7314 C.3     1  UNL1        0.0014
     26 C          59.5044   87.4641    9.5566 C.3     1  UNL1        0.0171
     27 C          59.9094   87.8378    8.1615 C.3     1  UNL1        0.0686
     28 N          59.7856   89.2596    7.7000 N.3     1  UNL1       -0.2975
     29 H          60.7296   89.6456    7.6791 H       1  UNL1        0.1232
     30 C          59.1633   89.5650    6.3698 C.3     1  UNL1        0.0686
     31 C          59.7976   90.5740    5.4590 C.3     1  UNL1        0.0188
     32 C          59.0238   91.7833    5.0246 C.3     1  UNL1        0.0226
     33 C          59.5593   92.6652    3.9358 C.3     1  UNL1        0.0871
     34 N          59.1252   92.4516    2.5160 N.pl3   1  UNL1       -0.3326
     35 H          58.4128   91.8036    2.3113 H       1  UNL1        0.1468
     36 C          59.7764   93.2251    1.4081 C.ar    1  UNL1        0.0476
     37 C          58.9342   94.0003    0.4388 C.ar    1  UNL1        0.0350
     38 C          59.5854   94.7739   -0.6692 C.ar    1  UNL1        0.1001
     39 N          61.0789   94.7723   -0.8077 N.ar    1  UNL1       -0.2437
     40 C          61.9213   93.9971    0.1617 C.ar    1  UNL1        0.0833
     41 C          63.4149   93.9955    0.0231 C.ar    1  UNL1        0.0305
     42 C          64.2572   93.2204    0.9924 C.ar    1  UNL1        0.0592
     43 CL         65.7508   93.2188    0.8538 Cl      1  UNL1       -0.0822
     44 C          63.6060   92.4468    2.1003 C.ar    1  UNL1        0.0115
     45 C          62.1124   92.4484    2.2388 C.ar    1  UNL1        0.0036
     46 C          61.2700   93.2235    1.2696 C.ar    1  UNL1        0.0309
     47 O          63.3417   88.0513   13.5599 O.3     1  UNL1       -0.4523
     48 C          64.7708   86.2949   14.8337 C.3     1  UNL1        0.1212
     49 C          63.8444   87.4745   14.8501 C.2     1  UNL1        0.3174
     50 O          63.4207   88.0773   16.1567 O.2     1  UNL1       -0.2501
     51 O          64.9344   93.9033   10.3245 O.3     1  UNL1       -0.4523
     52 C          65.5245   95.1769    9.7959 C.2     1  UNL1        0.3174
     53 C          66.8113   95.1443    9.0258 C.3     1  UNL1        0.1212
     54 O          64.8278   96.4833   10.0374 O.2     1  UNL1       -0.2501
@<TRIPOS>BOND
     1    48    49    1
     2    49    50    2
     3    49    47    1
     4     1    47    1
     5     1     2    1
     6     3     2    1
     7     3     4    1
     8     4     5    1
     9     5    51    1
    10    51    52    1
    11    52    53    1
    12    52    54    2
    13     5     6    1
    14     7     6    1
    15     7     8    1
    16     8     9    1
    17     9    10    1
    18     9    11    1
    19    11    12    1
    20    12    13    1
    21    13    14    1
    22     4    15    1
    23    15    16    1
    24    16    17    1
    25    18    17    1
    26    18    23    1
    27    23    24    1
    28    23    25    1
    29    25    26    1
    30    26    27    1
    31    27    28    1
    32    28    30    1
    33    30    31    1
    34    31    32    1
    35    32    33    1
    36    33    34    1
    37    34    36    1
    38    36    37   ar
    39    37    38   ar
    40    38    39   ar
    41    39    40   ar
    42    40    41   ar
    43    41    42   ar
    44    42    43    1
    45    42    44   ar
    46    44    45   ar
    47    45    46   ar
    48    18    19    1
    49    19    20    1
    50    19     1    1
    51    13     3    1
    52    19    15    1
    53    13     7    1
    54    46    36   ar
    55    46    40   ar
    56    10    21    1
    57    10    22    1
    58    28    29    1
    59    34    35    1
@<TRIPOS>MOLECULE
*****
 54 59 0 0 0
SMALL
GASTEIGER

@<TRIPOS>ATOM
      1 C          62.3395   86.7065   10.7492 C.3     1  UNL1        0.1686
      2 C          62.4217   85.2491   11.0944 C.3     1  UNL1        0.0437
      3 C          62.9117   84.8253   12.4473 C.3     1  UNL1        0.0071
      4 C          63.3194   85.8589   13.4550 C.3     1  UNL1        0.0404
      5 C          63.8094   85.4351   14.8079 C.3     1  UNL1        0.1687
      6 C          63.8916   83.9777   15.1531 C.3     1  UNL1        0.0437
      7 C          63.4838   82.9440   14.1454 C.3     1  UNL1        0.0049
      8 C          63.5661   81.4866   14.4907 C.3     1  UNL1        0.0156
      9 C          63.1583   80.4531   13.4830 C.3     1  UNL1        0.0508
     10 N          63.2405   78.9956   13.8282 N.3     1  UNL1       -0.3222
     11 C          62.6683   80.8769   12.1301 C.3     1  UNL1        0.0155
     12 C          62.5861   82.3343   11.7849 C.3     1  UNL1        0.0014
     13 C          62.9939   83.3678   12.7925 C.3     1  UNL1        0.0004
     14 C          62.5039   83.7916   11.4397 C.3     1  UNL1        0.0000
     15 C          63.2372   87.3164   13.1098 C.3     1  UNL1        0.0068
     16 C          63.5674   88.5531   13.8915 C.3     1  UNL1        0.0002
     17 C          63.2815   89.7413   13.0218 C.3     1  UNL1        0.0001
     18 C          62.7746   89.2388   11.7026 C.3     1  UNL1        0.0034
     19 C          62.7473   87.7402   11.7569 C.3     1  UNL1        0.0370
     20 C          62.2796   88.3119   10.4513 C.3     1  UNL1        0.0036
     21 H          62.9268   78.4396   13.0327 H       1  UNL1        0.1188
     22 H          62.6451   78.8029   14.6337 H       1  UNL1        0.1188
     23 C          62.3667   90.0864   10.5341 C.3     1  UNL1        0.0002
     24 C          63.3975   90.8790    9.7862 C.3     1  UNL1        0.0000
     25 C          60.9279   90.1414   10.1135 C.3     1  UNL1        0.0014
     26 C          60.5635   89.9943    8.6659 C.3     1  UNL1        0.0171
     27 C          59.4566   89.0663    8.2617 C.3     1  UNL1        0.0686
     28 N          59.1242   88.8826    6.8105 N.3     1  UNL1       -0.2975
     29 H          58.1172   88.7294    6.7562 H       1  UNL1        0.1232
     30 C          59.4517   89.9634    5.8234 C.3     1  UNL1        0.0686
     31 C          58.4989   91.1032    5.6157 C.3     1  UNL1        0.0188
     32 C          58.5610   91.9123    4.3542 C.3     1  UNL1        0.0226
     33 C          59.8752   92.4532    3.8741 C.3     1  UNL1        0.0871
     34 N          59.9090   93.6564    2.9790 N.pl3   1  UNL1       -0.3326
     35 H          59.7789   94.5556    3.3579 H       1  UNL1        0.1468
     36 C          60.1411   93.4894    1.5065 C.ar    1  UNL1        0.0476
     37 C          59.1104   92.8062    0.6575 C.ar    1  UNL1        0.0350
     38 C          59.3425   92.6392   -0.8151 C.ar    1  UNL1        0.1001
     39 N          60.6053   93.1554   -1.4386 N.ar    1  UNL1       -0.2437
     40 C          61.6361   93.8387   -0.5895 C.ar    1  UNL1        0.0833
     41 C          62.8989   94.3549   -1.2130 C.ar    1  UNL1        0.0305
     42 C          63.9297   95.0381   -0.3641 C.ar    1  UNL1        0.0592
     43 CL         65.1925   95.5543   -0.9876 Cl      1  UNL1       -0.0822
     44 C          63.6975   95.2051    1.1084 C.ar    1  UNL1        0.0115
     45 C          62.4347   94.6888    1.7319 C.ar    1  UNL1        0.0036
     46 C          61.4040   94.0056    0.8830 C.ar    1  UNL1        0.0309
     47 O          61.8495   87.1303    9.3963 O.3     1  UNL1       -0.4523
     48 C          62.8457   85.2609    7.8921 C.3     1  UNL1        0.1212
     49 C          61.6831   86.1133    8.3064 C.2     1  UNL1        0.3174
     50 O          60.3539   85.9486    7.6308 O.2     1  UNL1       -0.2501
     51 O          64.2172   86.4687   15.8155 O.3     1  UNL1       -0.4523
     52 C          63.2511   86.9026   16.8778 C.2     1  UNL1        0.3174
     53 C          63.1226   88.3559   17.2264 C.3     1  UNL1        0.1212
     54 O          62.4136   85.8832   17.5916 O.2     1  UNL1       -0.2501
@<TRIPOS>BOND
     1    48    49    1
     2    49    50    2
     3    49    47    1
     4     1    47    1
     5     1     2    1
     6     3     2    1
     7     3     4    1
     8     4     5    1
     9     5    51    1
    10    51    52    1
    11    52    53    1
    12    52    54    2
    13     5     6    1
    14     7     6    1
    15     7     8    1
    16     8     9    1
    17     9    10    1
    18     9    11    1
    19    11    12    1
    20    12    13    1
    21    13    14    1
    22     4    15    1
    23    15    16    1
    24    16    17    1
    25    18    17    1
    26    18    23    1
    27    23    24    1
    28    23    25    1
    29    25    26    1
    30    26    27    1
    31    27    28    1
    32    28    30    1
    33    30    31    1
    34    31    32    1
    35    32    33    1
    36    33    34    1
    37    34    36    1
    38    36    37   ar
    39    37    38   ar
    40    38    39   ar
    41    39    40   ar
    42    40    41   ar
    43    41    42   ar
    44    42    43    1
    45    42    44   ar
    46    44    45   ar
    47    45    46   ar
    48    18    19    1
    49    19    20    1
    50    19     1    1
    51    13     3    1
    52    19    15    1
    53    13     7    1
    54    46    36   ar
    55    46    40   ar
    56    10    21    1
    57    10    22    1
    58    28    29    1
    59    34    35    1
@<TRIPOS>MOLECULE
*****
 54 59 0 0 0
SMALL
GASTEIGER

@<TRIPOS>ATOM
      1 C          61.0943   86.5236    9.3949 C.3     1  UNL1        0.1686
      2 C          61.7736   85.6290   10.3889 C.3     1  UNL1        0.0437
      3 C          62.4811   86.2222   11.5710 C.3     1  UNL1        0.0071
      4 C          62.5094   87.7101   11.7591 C.3     1  UNL1        0.0404
      5 C          63.2170   88.3034   12.9412 C.3     1  UNL1        0.1687
      6 C          63.8962   87.4088   13.9353 C.3     1  UNL1        0.0437
      7 C          63.8680   85.9208   13.7472 C.3     1  UNL1        0.0049
      8 C          64.5473   85.0262   14.7413 C.3     1  UNL1        0.0156
      9 C          64.5190   83.5384   14.5533 C.3     1  UNL1        0.0508
     10 N          65.1983   82.6437   15.5474 N.3     1  UNL1       -0.3222
     11 C          63.8115   82.9451   13.3711 C.3     1  UNL1        0.0155
     12 C          63.1322   83.8397   12.3771 C.3     1  UNL1        0.0014
     13 C          63.1604   85.3276   12.5651 C.3     1  UNL1        0.0004
     14 C          62.4529   84.7343   11.3830 C.3     1  UNL1        0.0000
     15 C          61.8301   88.6048   10.7650 C.3     1  UNL1        0.0068
     16 C          61.6913   90.0963   10.6877 C.3     1  UNL1        0.0002
     17 C          60.8979   90.4249    9.4578 C.3     1  UNL1        0.0001
     18 C          60.5464   89.1364    8.7750 C.3     1  UNL1        0.0034
     19 C          61.1225   88.0115    9.5829 C.3     1  UNL1        0.0370
     20 C          60.3796   87.5652    8.3586 C.3     1  UNL1        0.0036
     21 H          65.0799   81.6706   15.2655 H       1  UNL1        0.1188
     22 H          64.7844   82.7835   16.4691 H       1  UNL1        0.1188
     23 C          59.7573   88.9973    7.5069 C.3     1  UNL1        0.0002
     24 C          58.7090   87.9309    7.3890 C.3     1  UNL1        0.0000
     25 C          60.0166   89.9246    6.3568 C.3     1  UNL1        0.0014
     26 C          58.8699   90.4580    5.5502 C.3     1  UNL1        0.0171
     27 C          58.8814   91.8827    5.0812 C.3     1  UNL1        0.0686
     28 N          58.9250   92.1888    3.6134 N.3     1  UNL1       -0.2975
     29 H          58.1348   92.8033    3.4172 H       1  UNL1        0.1232
     30 C          60.1382   92.8404    3.0188 C.3     1  UNL1        0.0686
     31 C          60.0147   93.6501    1.7622 C.3     1  UNL1        0.0188
     32 C          60.4961   93.0880    0.4575 C.3     1  UNL1        0.0226
     33 C          59.5807   92.2441   -0.3790 C.3     1  UNL1        0.0871
     34 N          58.1119   92.5455   -0.4207 N.pl3   1  UNL1       -0.3326
     35 H          57.4849   92.0152    0.1223 H       1  UNL1        0.1468
     36 C          57.5983   93.6551   -1.2896 C.ar    1  UNL1        0.0476
     37 C          57.5905   95.0654   -0.7789 C.ar    1  UNL1        0.0350
     38 C          57.0769   96.1751   -1.6478 C.ar    1  UNL1        0.1001
     39 N          56.5712   95.8743   -3.0276 N.ar    1  UNL1       -0.2437
     40 C          56.5790   94.4639   -3.5384 C.ar    1  UNL1        0.0833
     41 C          56.0733   94.1631   -4.9181 C.ar    1  UNL1        0.0305
     42 C          56.0810   92.7529   -5.4290 C.ar    1  UNL1        0.0592
     43 CL         55.5753   92.4521   -6.8088 Cl      1  UNL1       -0.0822
     44 C          56.5946   91.6433   -4.5600 C.ar    1  UNL1        0.0115
     45 C          57.1004   91.9441   -3.1803 C.ar    1  UNL1        0.0036
     46 C          57.0926   93.3543   -2.6694 C.ar    1  UNL1        0.0309
     47 O          60.3867   85.9303    8.2127 O.3     1  UNL1       -0.4523
     48 C          62.6291   84.9214    7.3738 C.3     1  UNL1        0.1212
     49 C          61.1465   85.0945    7.2258 C.2     1  UNL1        0.3174
     50 O          60.4236   84.4317    6.0907 O.2     1  UNL1       -0.2501
     51 O          63.2452   89.7913   13.1292 O.3     1  UNL1       -0.4523
     52 C          63.7050   90.3740   14.4327 C.2     1  UNL1        0.3174
     53 C          64.9861   91.1515   14.4963 C.3     1  UNL1        0.1212
     54 O          62.8836   90.1790   15.6726 O.2     1  UNL1       -0.2501
@<TRIPOS>BOND
     1    48    49    1
     2    49    50    2
     3    49    47    1
     4     1    47    1
     5     1     2    1
     6     3     2    1
     7     3     4    1
     8     4     5    1
     9     5    51    1
    10    51    52    1
    11    52    53    1
    12    52    54    2
    13     5     6    1
    14     7     6    1
    15     7     8    1
    16     8     9    1
    17     9    10    1
    18     9    11    1
    19    11    12    1
    20    12    13    1
    21    13    14    1
    22     4    15    1
    23    15    16    1
    24    16    17    1
    25    18    17    1
    26    18    23    1
    27    23    24    1
    28    23    25    1
    29    25    26    1
    30    26    27    1
    31    27    28    1
    32    28    30    1
    33    30    31    1
    34    31    32    1
    35    32    33    1
    36    33    34    1
    37    34    36    1
    38    36    37   ar
    39    37    38   ar
    40    38    39   ar
    41    39    40   ar
    42    40    41   ar
    43    41    42   ar
    44    42    43    1
    45    42    44   ar
    46    44    45   ar
    47    45    46   ar
    48    18    19    1
    49    19    20    1
    50    19     1    1
    51    13     3    1
    52    19    15    1
    53    13     7    1
    54    46    36   ar
    55    46    40   ar
    56    10    21    1
    57    10    22    1
    58    28    29    1
    59    34    35    1
@<TRIPOS>MOLECULE
*****
 54 59 0 0 0
SMALL
GASTEIGER

@<TRIPOS>ATOM
      1 C          63.7521   86.8408   13.9320 C.3     1  UNL1        0.1686
      2 C          63.6543   85.3651   13.6821 C.3     1  UNL1        0.0437
      3 C          63.2112   84.8592   12.3413 C.3     1  UNL1        0.0071
      4 C          62.8659   85.8291   11.2504 C.3     1  UNL1        0.0404
      5 C          62.4228   85.3232    9.9096 C.3     1  UNL1        0.1687
      6 C          62.3249   83.8475    9.6597 C.3     1  UNL1        0.0437
      7 C          62.6703   82.8775   10.7506 C.3     1  UNL1        0.0049
      8 C          62.5724   81.4017   10.5006 C.3     1  UNL1        0.0156
      9 C          62.9177   80.4318   11.5915 C.3     1  UNL1        0.0508
     10 N          62.8199   78.9560   11.3416 N.3     1  UNL1       -0.3222
     11 C          63.3609   80.9377   12.9323 C.3     1  UNL1        0.0155
     12 C          63.4587   82.4135   13.1822 C.3     1  UNL1        0.0014
     13 C          63.1134   83.3834   12.0914 C.3     1  UNL1        0.0004
     14 C          63.5565   83.8892   13.4322 C.3     1  UNL1        0.0000
     15 C          62.9637   87.3050   11.5003 C.3     1  UNL1        0.0068
     16 C          62.6909   88.4915   10.6243 C.3     1  UNL1        0.0002
     17 C          62.9654   89.7307   11.4236 C.3     1  UNL1        0.0001
     18 C          63.4078   89.3100   12.7937 C.3     1  UNL1        0.0034
     19 C          63.4068   87.8108   12.8411 C.3     1  UNL1        0.0370
     20 C          63.8326   88.4614   14.1239 C.3     1  UNL1        0.0036
     21 H          63.0896   78.4497   12.1850 H       1  UNL1        0.1188
     22 H          63.4435   78.6986   10.5765 H       1  UNL1        0.1188
     23 C          63.7851   90.2275   13.9189 C.3     1  UNL1        0.0002
     24 C          65.0226   91.0691   13.8176 C.3     1  UNL1        0.0000
     25 C          62.9248   90.3034   15.1453 C.3     1  UNL1        0.0014
     26 C          63.5214   90.7263   16.4549 C.3     1  UNL1        0.0171
     27 C          63.6099   92.1826   16.8033 C.3     1  UNL1        0.0686
     28 N          64.9486   92.8181   17.0358 N.3     1  UNL1       -0.2975
     29 H          65.0983   92.8288   18.0447 H       1  UNL1        0.1232
     30 C          66.1796   92.2199   16.4219 C.3     1  UNL1        0.0686
     31 C          67.3733   93.0839   16.1412 C.3     1  UNL1        0.0188
     32 C          67.6864   93.4959   14.7333 C.3     1  UNL1        0.0226
     33 C          66.9329   94.6264   14.0975 C.3     1  UNL1        0.0871
     34 N          65.9899   94.3550   12.9630 N.pl3   1  UNL1       -0.3326
     35 H          65.1703   93.8323   13.1185 H       1  UNL1        0.1468
     36 C          66.2957   94.8801   11.5916 C.ar    1  UNL1        0.0476
     37 C          65.8215   96.2447   11.1880 C.ar    1  UNL1        0.0350
     38 C          66.1273   96.7699    9.8165 C.ar    1  UNL1        0.1001
     39 N          66.9072   95.9302    8.8487 N.ar    1  UNL1       -0.2437
     40 C          67.3813   94.5655    9.2522 C.ar    1  UNL1        0.0833
     41 C          68.1612   93.7259    8.2844 C.ar    1  UNL1        0.0305
     42 C          68.6354   92.3612    8.6878 C.ar    1  UNL1        0.0592
     43 CL         69.4153   91.5216    7.7200 Cl      1  UNL1       -0.0822
     44 C          68.3296   91.8362   10.0593 C.ar    1  UNL1        0.0115
     45 C          67.5497   92.6758   11.0272 C.ar    1  UNL1        0.0036
     46 C          67.0756   94.0404   10.6237 C.ar    1  UNL1        0.0309
     47 O          64.1952   87.3467   15.2728 O.3     1  UNL1       -0.4523
     48 C          62.8535   87.4242   17.4963 C.3     1  UNL1        0.1212
     49 C          63.7151   86.6738   16.5244 C.2     1  UNL1        0.3174
     50 O          64.0966   85.2503   16.8043 O.2     1  UNL1       -0.2501
     51 O          62.0774   86.2932    8.8187 O.3     1  UNL1       -0.4523
     52 C          60.6732   86.3656    8.2963 C.2     1  UNL1        0.3174
     53 C          59.6869   87.3051    8.9242 C.3     1  UNL1        0.1212
     54 O          60.2554   85.4984    7.1459 O.2     1  UNL1       -0.2501
@<TRIPOS>BOND
     1    48    49    1
     2    49    50    2
     3    49    47    1
     4     1    47    1
     5     1     2    1
     6     3     2    1
     7     3     4    1
     8     4     5    1
     9     5    51    1
    10    51    52    1
    11    52    53    1
    12    52    54    2
    13     5     6    1
    14     7     6    1
    15     7     8    1
    16     8     9    1
    17     9    10    1
    18     9    11    1
    19    11    12    1
    20    12    13    1
    21    13    14    1
    22     4    15    1
    23    15    16    1
    24    16    17    1
    25    18    17    1
    26    18    23    1
    27    23    24    1
    28    23    25    1
    29    25    26    1
    30    26    27    1
    31    27    28    1
    32    28    30    1
    33    30    31    1
    34    31    32    1
    35    32    33    1
    36    33    34    1
    37    34    36    1
    38    36    37   ar
    39    37    38   ar
    40    38    39   ar
    41    39    40   ar
    42    40    41   ar
    43    41    42   ar
    44    42    43    1
    45    42    44   ar
    46    44    45   ar
    47    45    46   ar
    48    18    19    1
    49    19    20    1
    50    19     1    1
    51    13     3    1
    52    19    15    1
    53    13     7    1
    54    46    36   ar
    55    46    40   ar
    56    10    21    1
    57    10    22    1
    58    28    29    1
    59    34    35    1
