@<TRIPOS>MOLECULE
*****
 20 21 0 0 0
SMALL
GASTEIGER

@<TRIPOS>ATOM
      1 C          65.5763   92.9845   11.9009 C.ar    1  UNL1        0.1724
      2 C          64.9438   92.6280   10.5883 C.ar    1  UNL1        0.0400
      3 C          63.9390   91.5166   10.5173 C.ar    1  UNL1        0.0033
      4 C          63.5667   90.7617   11.7588 C.ar    1  UNL1        0.0033
      5 C          64.1992   91.1182   13.0714 C.ar    1  UNL1        0.0400
      6 C          65.2040   92.2296   13.1424 C.ar    1  UNL1        0.1724
      7 C          66.3683   95.3513   11.1788 C.3     1  UNL1        0.2526
      8 O          66.5811   94.0960   11.9719 O.3     1  UNL1       -0.4684
      9 C          62.5618   89.6502   11.6878 C.2     1  UNL1        0.0034
     10 C          62.4247   88.8423   10.4315 C.2     1  UNL1        0.0421
     11 C          61.4199   87.7308   10.3605 C.2     1  UNL1        0.1971
     12 O          60.4108   87.5609   11.4572 O.2     1  UNL1       -0.2865
     13 C          61.4243   86.7893    9.1928 C.ar    1  UNL1        0.0581
     14 C          62.6771   86.0476    8.8320 C.ar    1  UNL1        0.0063
     15 C          62.6815   85.1061    7.6642 C.ar    1  UNL1        0.0208
     16 C          61.4329   84.9063    6.8573 C.ar    1  UNL1        0.0989
     17 N          60.1800   85.6481    7.2181 N.ar    1  UNL1       -0.2422
     18 C          60.1757   86.5895    8.3858 C.ar    1  UNL1        0.1020
     19 O          65.8365   92.5862   14.4550 O.3     1  UNL1       -0.4684
     20 C          67.1239   91.9368   14.8681 C.3     1  UNL1        0.2526
@<TRIPOS>BOND
     1     7     8    1
     2     8     1    1
     3     1     2   ar
     4     2     3   ar
     5     3     4   ar
     6     4     9    1
     7     9    10    2
     8    10    11    1
     9    11    12    2
    10    11    13    1
    11    13    14   ar
    12    14    15   ar
    13    15    16   ar
    14    16    17   ar
    15    17    18   ar
    16     4     5   ar
    17     5     6   ar
    18     6    19    1
    19    19    20    1
    20     6     1   ar
    21    18    13   ar
@<TRIPOS>MOLECULE
*****
 20 21 0 0 0
SMALL
GASTEIGER

@<TRIPOS>ATOM
      1 C          66.7534   92.1968   13.6780 C.ar    1  UNL1        0.1724
      2 C          66.0452   91.1625   14.5018 C.ar    1  UNL1        0.0400
      3 C          64.7432   90.5883   14.0273 C.ar    1  UNL1        0.0033
      4 C          64.1494   91.0484   12.7290 C.ar    1  UNL1        0.0033
      5 C          64.8576   92.0827   11.9052 C.ar    1  UNL1        0.0400
      6 C          66.1595   92.6569   12.3797 C.ar    1  UNL1        0.1724
      7 C          68.1445   93.4083   15.5075 C.3     1  UNL1        0.2526
      8 O          68.0553   92.7710   14.1525 O.3     1  UNL1       -0.4684
      9 C          62.8474   90.4742   12.2544 C.2     1  UNL1        0.0034
     10 C          62.4295   90.6447   10.8240 C.2     1  UNL1        0.0421
     11 C          61.1276   90.0705   10.3495 C.2     1  UNL1        0.1971
     12 O          59.8449   90.8024   10.6122 O.2     1  UNL1       -0.2865
     13 C          61.1083   88.7642    9.6122 C.ar    1  UNL1        0.0581
     14 C          62.1758   87.7423    9.8690 C.ar    1  UNL1        0.0063
     15 C          62.1565   86.4360    9.1318 C.ar    1  UNL1        0.0208
     16 C          61.0697   86.1518    8.1378 C.ar    1  UNL1        0.0989
     17 N          60.0021   87.1739    7.8810 N.ar    1  UNL1       -0.2422
     18 C          60.0214   88.4800    8.6183 C.ar    1  UNL1        0.1020
     19 O          66.8677   93.6913   11.5559 O.3     1  UNL1       -0.4684
     20 C          66.2183   95.0188   11.2988 C.3     1  UNL1        0.2526
@<TRIPOS>BOND
     1     7     8    1
     2     8     1    1
     3     1     2   ar
     4     2     3   ar
     5     3     4   ar
     6     4     9    1
     7     9    10    2
     8    10    11    1
     9    11    12    2
    10    11    13    1
    11    13    14   ar
    12    14    15   ar
    13    15    16   ar
    14    16    17   ar
    15    17    18   ar
    16     4     5   ar
    17     5     6   ar
    18     6    19    1
    19    19    20    1
    20     6     1   ar
    21    18    13   ar
@<TRIPOS>MOLECULE
*****
 20 21 0 0 0
SMALL
GASTEIGER

@<TRIPOS>ATOM
      1 C          66.1693   92.7153   12.4532 C.ar    1  UNL1        0.1724
      2 C          64.9005   92.1067   11.9338 C.ar    1  UNL1        0.0400
      3 C          64.2226   91.0133   12.7051 C.ar    1  UNL1        0.0033
      4 C          64.8134   90.5284   13.9957 C.ar    1  UNL1        0.0033
      5 C          66.0822   91.1370   14.5151 C.ar    1  UNL1        0.0400
      6 C          66.7601   92.2305   13.7439 C.ar    1  UNL1        0.1724
      7 C          66.1813   95.1443   11.5315 C.3     1  UNL1        0.2526
      8 O          66.8472   93.8087   11.6820 O.3     1  UNL1       -0.4684
      9 C          64.1355   89.4350   14.7669 C.2     1  UNL1        0.0034
     10 C          64.5096   88.0029   14.5241 C.2     1  UNL1        0.0421
     11 C          63.8317   86.9094   15.2953 C.2     1  UNL1        0.1971
     12 O          63.2142   87.2048   16.6300 O.2     1  UNL1       -0.2865
     13 C          63.7713   85.5206   14.7318 C.ar    1  UNL1        0.0581
     14 C          63.5867   85.3168   13.2573 C.ar    1  UNL1        0.0063
     15 C          63.5263   83.9279   12.6938 C.ar    1  UNL1        0.0208
     16 C          63.6505   82.7429   13.6049 C.ar    1  UNL1        0.0989
     17 N          63.8352   82.9467   15.0796 N.ar    1  UNL1       -0.2422
     18 C          63.8955   84.3355   15.6430 C.ar    1  UNL1        0.1020
     19 O          68.0289   92.8391   14.2633 O.3     1  UNL1       -0.4684
     20 C          68.0443   93.5112   15.6042 C.3     1  UNL1        0.2526
@<TRIPOS>BOND
     1     7     8    1
     2     8     1    1
     3     1     2   ar
     4     2     3   ar
     5     3     4   ar
     6     4     9    1
     7     9    10    2
     8    10    11    1
     9    11    12    2
    10    11    13    1
    11    13    14   ar
    12    14    15   ar
    13    15    16   ar
    14    16    17   ar
    15    17    18   ar
    16     4     5   ar
    17     5     6   ar
    18     6    19    1
    19    19    20    1
    20     6     1   ar
    21    18    13   ar
@<TRIPOS>MOLECULE
*****
 20 21 0 0 0
SMALL
GASTEIGER

@<TRIPOS>ATOM
      1 C          59.7154   88.1064    8.0994 C.ar    1  UNL1        0.1724
      2 C          60.0066   86.6960    7.6800 C.ar    1  UNL1        0.0400
      3 C          60.9040   85.8344    8.5181 C.ar    1  UNL1        0.0033
      4 C          61.5101   86.3832    9.7756 C.ar    1  UNL1        0.0033
      5 C          61.2189   87.7936   10.1950 C.ar    1  UNL1        0.0400
      6 C          60.3215   88.6552    9.3569 C.ar    1  UNL1        0.1724
      7 C          59.3960   89.7986    6.1541 C.3     1  UNL1        0.2526
      8 O          58.8181   88.9680    7.2613 O.3     1  UNL1       -0.4684
      9 C          62.4075   85.5216   10.6137 C.2     1  UNL1        0.0034
     10 C          62.2060   85.4503   12.0984 C.2     1  UNL1        0.0421
     11 C          63.1033   84.5887   12.9365 C.2     1  UNL1        0.1971
     12 O          64.2706   85.1977   13.6552 O.2     1  UNL1       -0.2865
     13 C          62.8334   83.1179   13.0559 C.ar    1  UNL1        0.0581
     14 C          63.0445   82.2183   11.8743 C.ar    1  UNL1        0.0063
     15 C          62.7746   80.7476   11.9937 C.ar    1  UNL1        0.0208
     16 C          62.2935   80.1766   13.2947 C.ar    1  UNL1        0.0989
     17 N          62.0824   81.0763   14.4762 N.ar    1  UNL1       -0.2422
     18 C          62.3523   82.5469   14.3568 C.ar    1  UNL1        0.1020
     19 O          60.0303   90.0656    9.7764 O.3     1  UNL1       -0.4684
     20 C          59.7550   90.3779   11.2174 C.3     1  UNL1        0.2526
@<TRIPOS>BOND
     1     7     8    1
     2     8     1    1
     3     1     2   ar
     4     2     3   ar
     5     3     4   ar
     6     4     9    1
     7     9    10    2
     8    10    11    1
     9    11    12    2
    10    11    13    1
    11    13    14   ar
    12    14    15   ar
    13    15    16   ar
    14    16    17   ar
    15    17    18   ar
    16     4     5   ar
    17     5     6   ar
    18     6    19    1
    19    19    20    1
    20     6     1   ar
    21    18    13   ar
@<TRIPOS>MOLECULE
*****
 20 21 0 0 0
SMALL
GASTEIGER

@<TRIPOS>ATOM
      1 C          60.4872   87.7010    9.6877 C.ar    1  UNL1        0.1724
      2 C          60.5350   89.1568    9.3294 C.ar    1  UNL1        0.0400
      3 C          61.5258   90.0620    9.9994 C.ar    1  UNL1        0.0033
      4 C          62.4687   89.5115   11.0278 C.ar    1  UNL1        0.0033
      5 C          62.4209   88.0557   11.3862 C.ar    1  UNL1        0.0400
      6 C          61.4302   87.1505   10.7161 C.ar    1  UNL1        0.1724
      7 C          59.1091   87.0349    7.5884 C.3     1  UNL1        0.2526
      8 O          59.4964   86.7958    9.0176 O.3     1  UNL1       -0.4684
      9 C          63.4595   90.4167   11.6979 C.2     1  UNL1        0.0034
     10 C          64.0867   91.5419   10.9294 C.2     1  UNL1        0.0421
     11 C          65.0774   92.4471   11.5995 C.2     1  UNL1        0.1971
     12 O          65.1237   92.5312   13.0964 O.2     1  UNL1       -0.2865
     13 C          66.0219   93.2682   10.7726 C.ar    1  UNL1        0.0581
     14 C          67.1860   92.6126   10.0907 C.ar    1  UNL1        0.0063
     15 C          68.1305   93.4337    9.2637 C.ar    1  UNL1        0.0208
     16 C          67.9109   94.9105    9.1188 C.ar    1  UNL1        0.0989
     17 N          66.7467   95.5661    9.8007 N.ar    1  UNL1       -0.2422
     18 C          65.8023   94.7449   10.6276 C.ar    1  UNL1        0.1020
     19 O          61.3824   85.6947   11.0745 O.3     1  UNL1       -0.4684
     20 C          62.5280   85.0655   11.8104 C.3     1  UNL1        0.2526
@<TRIPOS>BOND
     1     7     8    1
     2     8     1    1
     3     1     2   ar
     4     2     3   ar
     5     3     4   ar
     6     4     9    1
     7     9    10    2
     8    10    11    1
     9    11    12    2
    10    11    13    1
    11    13    14   ar
    12    14    15   ar
    13    15    16   ar
    14    16    17   ar
    15    17    18   ar
    16     4     5   ar
    17     5     6   ar
    18     6    19    1
    19    19    20    1
    20     6     1   ar
    21    18    13   ar
@<TRIPOS>MOLECULE
*****
 20 21 0 0 0
SMALL
GASTEIGER

@<TRIPOS>ATOM
      1 C          60.6977   86.4634    8.1766 C.ar    1  UNL1        0.1724
      2 C          61.7003   86.0773    9.2233 C.ar    1  UNL1        0.0400
      3 C          62.0793   87.0550   10.2958 C.ar    1  UNL1        0.0033
      4 C          61.4555   88.4189   10.3218 C.ar    1  UNL1        0.0033
      5 C          60.4529   88.8051    9.2751 C.ar    1  UNL1        0.0400
      6 C          60.0740   87.8273    8.2025 C.ar    1  UNL1        0.1724
      7 C          61.3758   84.6542    6.4397 C.3     1  UNL1        0.2526
      8 O          60.3188   85.4857    7.1040 O.3     1  UNL1       -0.4684
      9 C          61.8344   89.3967   11.3943 C.2     1  UNL1        0.0034
     10 C          62.9915   89.1026   12.3025 C.2     1  UNL1        0.0421
     11 C          63.3704   90.0804   13.3751 C.2     1  UNL1        0.1971
     12 O          62.8026   89.9362   14.7559 O.2     1  UNL1       -0.2865
     13 C          64.3171   91.2023   13.0668 C.ar    1  UNL1        0.0581
     14 C          64.4655   91.6924   11.6569 C.ar    1  UNL1        0.0063
     15 C          65.4122   92.8143   11.3486 C.ar    1  UNL1        0.0208
     16 C          66.2105   93.4462   12.4501 C.ar    1  UNL1        0.0989
     17 N          66.0621   92.9560   13.8601 N.ar    1  UNL1       -0.2422
     18 C          65.1154   91.8341   14.1683 C.ar    1  UNL1        0.1020
     19 O          59.0713   88.2135    7.1558 O.3     1  UNL1       -0.4684
     20 C          59.1753   89.5448    6.4725 C.3     1  UNL1        0.2526
@<TRIPOS>BOND
     1     7     8    1
     2     8     1    1
     3     1     2   ar
     4     2     3   ar
     5     3     4   ar
     6     4     9    1
     7     9    10    2
     8    10    11    1
     9    11    12    2
    10    11    13    1
    11    13    14   ar
    12    14    15   ar
    13    15    16   ar
    14    16    17   ar
    15    17    18   ar
    16     4     5   ar
    17     5     6   ar
    18     6    19    1
    19    19    20    1
    20     6     1   ar
    21    18    13   ar
@<TRIPOS>MOLECULE
*****
 20 21 0 0 0
SMALL
GASTEIGER

@<TRIPOS>ATOM
      1 C          61.8785   87.7931    9.8790 C.ar    1  UNL1        0.1724
      2 C          61.8368   89.2628    9.5822 C.ar    1  UNL1        0.0400
      3 C          62.3302   90.2478   10.6001 C.ar    1  UNL1        0.0033
      4 C          62.8653   89.7632   11.9149 C.ar    1  UNL1        0.0033
      5 C          62.9070   88.2935   12.2117 C.ar    1  UNL1        0.0400
      6 C          62.4137   87.3084   11.1938 C.ar    1  UNL1        0.1724
      7 C          59.9318   86.7759    8.4913 C.3     1  UNL1        0.2526
      8 O          61.3852   86.8080    8.8610 O.3     1  UNL1       -0.4684
      9 C          63.3587   90.7482   12.9329 C.2     1  UNL1        0.0034
     10 C          64.1187   90.2686   14.1338 C.2     1  UNL1        0.0421
     11 C          64.6121   91.2536   15.1517 C.2     1  UNL1        0.1971
     12 O          63.7069   91.7040   16.2598 O.2     1  UNL1       -0.2865
     13 C          66.0107   91.7883   15.0616 C.ar    1  UNL1        0.0581
     14 C          66.6166   92.5049   16.2318 C.ar    1  UNL1        0.0063
     15 C          68.0152   93.0396   16.1417 C.ar    1  UNL1        0.0208
     16 C          68.8079   92.8577   14.8813 C.ar    1  UNL1        0.0989
     17 N          68.2020   92.1410   13.7111 N.ar    1  UNL1       -0.2422
     18 C          66.8034   91.6064   13.8013 C.ar    1  UNL1        0.1020
     19 O          62.4554   85.8386   11.4907 O.3     1  UNL1       -0.4684
     20 C          63.2915   85.3262   12.6257 C.3     1  UNL1        0.2526
@<TRIPOS>BOND
     1     7     8    1
     2     8     1    1
     3     1     2   ar
     4     2     3   ar
     5     3     4   ar
     6     4     9    1
     7     9    10    2
     8    10    11    1
     9    11    12    2
    10    11    13    1
    11    13    14   ar
    12    14    15   ar
    13    15    16   ar
    14    16    17   ar
    15    17    18   ar
    16     4     5   ar
    17     5     6   ar
    18     6    19    1
    19    19    20    1
    20     6     1   ar
    21    18    13   ar
@<TRIPOS>MOLECULE
*****
 20 21 0 0 0
SMALL
GASTEIGER

@<TRIPOS>ATOM
      1 C          63.4105   83.9750   13.2280 C.ar    1  UNL1        0.1724
      2 C          64.2441   84.2484   14.4446 C.ar    1  UNL1        0.0400
      3 C          64.5470   85.6621   14.8441 C.ar    1  UNL1        0.0033
      4 C          64.0164   86.8025   14.0268 C.ar    1  UNL1        0.0033
      5 C          63.1828   86.5291   12.8101 C.ar    1  UNL1        0.0400
      6 C          62.8799   85.1154   12.4107 C.ar    1  UNL1        0.1724
      7 C          63.8690   81.4272   13.4484 C.3     1  UNL1        0.2526
      8 O          63.1076   82.5613   12.8285 O.3     1  UNL1       -0.4684
      9 C          64.3193   88.2162   14.4263 C.2     1  UNL1        0.0034
     10 C          63.8225   89.3557   13.5867 C.2     1  UNL1        0.0421
     11 C          64.1254   90.7694   13.9862 C.2     1  UNL1        0.1971
     12 O          63.6410   91.2965   15.3043 O.2     1  UNL1       -0.2865
     13 C          64.9128   91.6560   13.0674 C.ar    1  UNL1        0.0581
     14 C          64.4965   91.8099   11.6346 C.ar    1  UNL1        0.0063
     15 C          65.2839   92.6965   10.7159 C.ar    1  UNL1        0.0208
     16 C          66.4875   93.4292   11.2300 C.ar    1  UNL1        0.0989
     17 N          66.9038   93.2754   12.6629 N.ar    1  UNL1       -0.2422
     18 C          66.1164   92.3888   13.5816 C.ar    1  UNL1        0.1020
     19 O          62.0463   84.8420   11.1939 O.3     1  UNL1       -0.4684
     20 C          61.8613   85.9092   10.1563 C.3     1  UNL1        0.2526
@<TRIPOS>BOND
     1     7     8    1
     2     8     1    1
     3     1     2   ar
     4     2     3   ar
     5     3     4   ar
     6     4     9    1
     7     9    10    2
     8    10    11    1
     9    11    12    2
    10    11    13    1
    11    13    14   ar
    12    14    15   ar
    13    15    16   ar
    14    16    17   ar
    15    17    18   ar
    16     4     5   ar
    17     5     6   ar
    18     6    19    1
    19    19    20    1
    20     6     1   ar
    21    18    13   ar
@<TRIPOS>MOLECULE
*****
 20 21 0 0 0
SMALL
GASTEIGER

@<TRIPOS>ATOM
      1 C          60.6251   87.4760    9.5935 C.ar    1  UNL1        0.1724
      2 C          61.6667   86.9779   10.5510 C.ar    1  UNL1        0.0400
      3 C          62.5706   87.9506   11.2487 C.ar    1  UNL1        0.0033
      4 C          62.4327   89.4215   10.9890 C.ar    1  UNL1        0.0033
      5 C          61.3910   89.9196   10.0315 C.ar    1  UNL1        0.0400
      6 C          60.4872   88.9469    9.3338 C.ar    1  UNL1        0.1724
      7 C          60.1560   85.8652    7.6097 C.3     1  UNL1        0.2526
      8 O          59.7213   86.5032    8.8958 O.3     1  UNL1       -0.4684
      9 C          63.3365   90.3943   11.6868 C.2     1  UNL1        0.0034
     10 C          64.1151   91.3988   10.8901 C.2     1  UNL1        0.0421
     11 C          65.0189   92.3716   11.5879 C.2     1  UNL1        0.1971
     12 O          64.9793   92.4929   13.0824 O.2     1  UNL1       -0.2865
     13 C          65.9623   93.2231   10.7910 C.ar    1  UNL1        0.0581
     14 C          67.1399   92.5971   10.1044 C.ar    1  UNL1        0.0063
     15 C          68.0833   93.4486    9.3075 C.ar    1  UNL1        0.0208
     16 C          67.8492   94.9261    9.1973 C.ar    1  UNL1        0.0989
     17 N          66.6715   95.5521    9.8839 N.ar    1  UNL1       -0.2422
     18 C          65.7282   94.7006   10.6808 C.ar    1  UNL1        0.1020
     19 O          59.4455   89.4450    8.3763 O.3     1  UNL1       -0.4684
     20 C          59.6951   89.3848    6.8985 C.3     1  UNL1        0.2526
@<TRIPOS>BOND
     1     7     8    1
     2     8     1    1
     3     1     2   ar
     4     2     3   ar
     5     3     4   ar
     6     4     9    1
     7     9    10    2
     8    10    11    1
     9    11    12    2
    10    11    13    1
    11    13    14   ar
    12    14    15   ar
    13    15    16   ar
    14    16    17   ar
    15    17    18   ar
    16     4     5   ar
    17     5     6   ar
    18     6    19    1
    19    19    20    1
    20     6     1   ar
    21    18    13   ar
