@<TRIPOS>MOLECULE
*****
 27 30 0 0 0
SMALL
GASTEIGER

@<TRIPOS>ATOM
      1 C          62.0020   86.1667   10.1248 C.ar    1  UNL1        0.0930
      2 C          61.1332   86.1722    8.9021 C.ar    1  UNL1        0.1067
      3 N          60.6296   87.5703    8.6977 N.ar    1  UNL1       -0.2252
      4 C          61.1871   88.4288    9.7942 C.ar    1  UNL1        0.1586
      5 N          61.0321   89.8883   10.1034 N.ar    1  UNL1       -0.3349
      6 C          61.7252   90.4803   11.2946 C.ar    1  UNL1        0.0944
      7 C          62.5734   89.6128   12.1766 C.ar    1  UNL1        0.1171
      8 N          62.7285   88.1532   11.8674 N.ar    1  UNL1       -0.2391
      9 C          62.0353   87.5612   10.6762 C.ar    1  UNL1        0.1210
     10 H          60.4754   90.4577    9.5245 H       1  UNL1        0.1675
     11 C          63.2665   90.2049   13.3679 C.ar    1  UNL1        0.1136
     12 N          62.9782   89.8851   14.8048 N.ar    1  UNL1       -0.2227
     13 C          63.9031   90.7032   15.6564 C.ar    1  UNL1        0.1783
     14 N          64.7631   91.5286   14.7458 N.ar    1  UNL1       -0.3125
     15 C          64.3697   91.2206   13.3315 C.ar    1  UNL1        0.0576
     16 C          65.0667   91.9049   12.1931 C.3     1  UNL1        0.0455
     17 C          66.1572   92.8971   12.4690 C.3     1  UNL1        0.0083
     18 C          66.5507   93.2051   13.8834 C.3     1  UNL1        0.0249
     19 C          65.8536   92.5209   15.0217 C.3     1  UNL1        0.1073
     20 N          62.5826   84.6531   12.1552 N.am    1  UNL1       -0.3039
     21 C          62.7127   84.9756   10.6960 C.2     1  UNL1        0.2488
     22 O          63.5535   84.1069    9.8081 O.2     1  UNL1       -0.2700
     23 H          62.0307   85.2232   12.7380 H       1  UNL1        0.1496
     24 C          62.2973   82.5528   12.0695 C.3     1  UNL1        0.0196
     25 C          63.2933   83.4620   12.7264 C.3     1  UNL1        0.0572
     26 C          64.2892   84.3712   13.3833 C.3     1  UNL1        0.0196
     27 C          64.0039   82.2710   13.2975 C.3     1  UNL1        0.0196
@<TRIPOS>BOND
     1    24    25    1
     2    25    26    1
     3    25    27    1
     4    25    20    1
     5    20    21   am
     6    21    22    2
     7    21     1    1
     8     1     2   ar
     9     2     3   ar
    10     3     4   ar
    11     4     5   ar
    12     5     6   ar
    13     6     7   ar
    14     7    11    1
    15    11    12   ar
    16    12    13   ar
    17    13    14   ar
    18    14    15   ar
    19    15    16    1
    20    16    17    1
    21    17    18    1
    22    18    19    1
    23     7     8   ar
    24     8     9   ar
    25     9     1   ar
    26     9     4    1
    27    15    11   ar
    28    19    14    1
    29    20    23    1
    30     5    10    1
@<TRIPOS>MOLECULE
*****
 27 30 0 0 0
SMALL
GASTEIGER

@<TRIPOS>ATOM
      1 C          63.4046   90.2253   13.7319 C.ar    1  UNL1        0.0930
      2 C          63.1721   90.1029   15.2087 C.ar    1  UNL1        0.1067
      3 N          64.1586   90.9903   15.9083 N.ar    1  UNL1       -0.2252
      4 C          65.0007   91.6611   14.8638 C.ar    1  UNL1        0.1586
      5 N          66.1317   92.6413   14.9638 N.ar    1  UNL1       -0.3349
      6 C          66.7966   93.1487   13.7188 C.ar    1  UNL1        0.0944
      7 C          66.3306   92.6759   12.3737 C.ar    1  UNL1        0.1171
      8 N          65.1997   91.6957   12.2736 N.ar    1  UNL1       -0.2391
      9 C          64.5347   91.1883   13.5187 C.ar    1  UNL1        0.1210
     10 H          66.4375   92.9516   15.8467 H       1  UNL1        0.1675
     11 C          66.9957   93.1834   11.1285 C.ar    1  UNL1        0.1136
     12 N          68.0930   92.4953   10.3720 N.ar    1  UNL1       -0.2227
     13 C          68.4557   93.3546    9.1972 C.ar    1  UNL1        0.1783
     14 N          67.5824   94.5739    9.2278 N.ar    1  UNL1       -0.3125
     15 C          66.6801   94.4681   10.4214 C.ar    1  UNL1        0.0576
     16 C          65.6877   95.5552   10.7102 C.3     1  UNL1        0.0455
     17 C          65.5977   96.7481    9.8053 C.3     1  UNL1        0.0083
     18 C          66.5000   96.8539    8.6117 C.3     1  UNL1        0.0249
     19 C          67.4923   95.7669    8.3230 C.3     1  UNL1        0.1073
     20 N          61.5682   90.2294   11.8939 N.am    1  UNL1       -0.3039
     21 C          62.6410   89.5102   12.6569 C.2     1  UNL1        0.2488
     22 O          62.9500   88.0760   12.3448 O.2     1  UNL1       -0.2700
     23 H          61.3654   91.1708   12.0987 H       1  UNL1        0.1496
     24 C          61.9236   89.7710    9.8534 C.3     1  UNL1        0.0196
     25 C          60.8047   89.5143   10.8189 C.3     1  UNL1        0.0572
     26 C          59.6857   89.2577   11.7844 C.3     1  UNL1        0.0196
     27 C          60.0411   88.7993    9.7440 C.3     1  UNL1        0.0196
@<TRIPOS>BOND
     1    24    25    1
     2    25    26    1
     3    25    27    1
     4    25    20    1
     5    20    21   am
     6    21    22    2
     7    21     1    1
     8     1     2   ar
     9     2     3   ar
    10     3     4   ar
    11     4     5   ar
    12     5     6   ar
    13     6     7   ar
    14     7    11    1
    15    11    12   ar
    16    12    13   ar
    17    13    14   ar
    18    14    15   ar
    19    15    16    1
    20    16    17    1
    21    17    18    1
    22    18    19    1
    23     7     8   ar
    24     8     9   ar
    25     9     1   ar
    26     9     4    1
    27    15    11   ar
    28    19    14    1
    29    20    23    1
    30     5    10    1
@<TRIPOS>MOLECULE
*****
 27 30 0 0 0
SMALL
GASTEIGER

@<TRIPOS>ATOM
      1 C          64.0028   88.0199   13.9609 C.ar    1  UNL1        0.0930
      2 C          64.5634   89.1815   14.7266 C.ar    1  UNL1        0.1067
      3 N          64.1310   90.4423   14.0385 N.ar    1  UNL1       -0.2252
      4 C          63.3032   90.0598   12.8474 C.ar    1  UNL1        0.1586
      5 N          62.6114   90.8814   11.8004 N.ar    1  UNL1       -0.3349
      6 C          61.8404   90.2058   10.7054 C.ar    1  UNL1        0.0944
      7 C          61.7612   88.7087   10.6574 C.ar    1  UNL1        0.1171
      8 N          62.4530   87.8871   11.7045 N.ar    1  UNL1       -0.2391
      9 C          63.2240   88.5627   12.7995 C.ar    1  UNL1        0.1210
     10 H          62.6634   91.8640   11.8319 H       1  UNL1        0.1675
     11 C          60.9901   88.0331    9.5623 C.ar    1  UNL1        0.1136
     12 N          59.6143   88.4046    9.0942 N.ar    1  UNL1       -0.2227
     13 C          59.2333   87.4686    7.9857 C.ar    1  UNL1        0.1783
     14 N          60.3738   86.5186    7.7688 N.ar    1  UNL1       -0.3125
     15 C          61.4595   86.8675    8.7432 C.ar    1  UNL1        0.0576
     16 C          62.7353   86.0788    8.7586 C.3     1  UNL1        0.0455
     17 C          62.9253   84.9411    7.7997 C.3     1  UNL1        0.0083
     18 C          61.8395   84.5923    6.8253 C.3     1  UNL1        0.0249
     19 C          60.5638   85.3810    6.8098 C.3     1  UNL1        0.1073
     20 N          63.2255   85.5482   13.7695 N.am    1  UNL1       -0.3039
     21 C          64.1885   86.5700   14.2974 C.2     1  UNL1        0.2488
     22 O          65.3370   86.1417   15.1618 O.2     1  UNL1       -0.2700
     23 H          62.4716   85.8292   13.2021 H       1  UNL1        0.1496
     24 C          64.2791   83.9283   12.8945 C.3     1  UNL1        0.0196
     25 C          63.4111   84.0982   14.1060 C.3     1  UNL1        0.0572
     26 C          62.5431   84.2683   15.3175 C.3     1  UNL1        0.0196
     27 C          63.5968   82.6484   14.4425 C.3     1  UNL1        0.0196
@<TRIPOS>BOND
     1    24    25    1
     2    25    26    1
     3    25    27    1
     4    25    20    1
     5    20    21   am
     6    21    22    2
     7    21     1    1
     8     1     2   ar
     9     2     3   ar
    10     3     4   ar
    11     4     5   ar
    12     5     6   ar
    13     6     7   ar
    14     7    11    1
    15    11    12   ar
    16    12    13   ar
    17    13    14   ar
    18    14    15   ar
    19    15    16    1
    20    16    17    1
    21    17    18    1
    22    18    19    1
    23     7     8   ar
    24     8     9   ar
    25     9     1   ar
    26     9     4    1
    27    15    11   ar
    28    19    14    1
    29    20    23    1
    30     5    10    1
@<TRIPOS>MOLECULE
*****
 27 30 0 0 0
SMALL
GASTEIGER

@<TRIPOS>ATOM
      1 C          63.3679   85.3411   15.5446 C.ar    1  UNL1        0.0930
      2 C          62.7751   84.8287   16.8236 C.ar    1  UNL1        0.1067
      3 N          62.5279   86.0033   17.7231 N.ar    1  UNL1       -0.2252
      4 C          62.9680   87.2416   17.0001 C.ar    1  UNL1        0.1586
      5 N          62.9631   88.6890   17.3938 N.ar    1  UNL1       -0.3349
      6 C          63.4774   89.7271   16.4410 C.ar    1  UNL1        0.0944
      7 C          63.9966   89.3178   15.0946 C.ar    1  UNL1        0.1171
      8 N          64.0015   87.8705   14.7009 N.ar    1  UNL1       -0.2391
      9 C          63.4872   86.8324   15.6536 C.ar    1  UNL1        0.1210
     10 H          62.6224   88.9576   18.2775 H       1  UNL1        0.1675
     11 C          64.5109   90.3560   14.1418 C.ar    1  UNL1        0.1136
     12 N          65.6274   91.3216   14.4085 N.ar    1  UNL1       -0.2227
     13 C          65.8055   92.1733   13.1867 C.ar    1  UNL1        0.1783
     14 N          64.7991   91.7340   12.1648 N.ar    1  UNL1       -0.3125
     15 C          63.9990   90.6109   12.7551 C.ar    1  UNL1        0.0576
     16 C          62.9077   89.9653   11.9536 C.3     1  UNL1        0.0455
     17 C          62.6165   90.4429   10.5618 C.3     1  UNL1        0.0083
     18 C          63.4167   91.5661    9.9715 C.3     1  UNL1        0.0249
     19 C          64.5079   92.2115   10.7730 C.3     1  UNL1        0.1073
     20 N          62.7220   83.8465   13.5198 N.am    1  UNL1       -0.3039
     21 C          63.7708   84.5084   14.3637 C.2     1  UNL1        0.2488
     22 O          65.2224   84.3376   14.0267 O.2     1  UNL1       -0.2700
     23 H          61.7693   83.9586   13.7410 H       1  UNL1        0.1496
     24 C          63.0279   84.2215   11.4545 C.3     1  UNL1        0.0196
     25 C          63.1249   83.0139   12.3390 C.3     1  UNL1        0.0572
     26 C          63.2219   81.8063   13.2236 C.3     1  UNL1        0.0196
     27 C          63.5278   82.1813   11.1582 C.3     1  UNL1        0.0196
@<TRIPOS>BOND
     1    24    25    1
     2    25    26    1
     3    25    27    1
     4    25    20    1
     5    20    21   am
     6    21    22    2
     7    21     1    1
     8     1     2   ar
     9     2     3   ar
    10     3     4   ar
    11     4     5   ar
    12     5     6   ar
    13     6     7   ar
    14     7    11    1
    15    11    12   ar
    16    12    13   ar
    17    13    14   ar
    18    14    15   ar
    19    15    16    1
    20    16    17    1
    21    17    18    1
    22    18    19    1
    23     7     8   ar
    24     8     9   ar
    25     9     1   ar
    26     9     4    1
    27    15    11   ar
    28    19    14    1
    29    20    23    1
    30     5    10    1
@<TRIPOS>MOLECULE
*****
 27 30 0 0 0
SMALL
GASTEIGER

@<TRIPOS>ATOM
      1 C          63.3773   84.3137   10.5667 C.ar    1  UNL1        0.0930
      2 C          63.8724   82.9880   10.0693 C.ar    1  UNL1        0.1067
      3 N          64.4304   82.2331   11.2392 N.ar    1  UNL1       -0.2252
      4 C          64.2802   83.0922   12.4596 C.ar    1  UNL1        0.1586
      5 N          64.6520   82.8696   13.8957 N.ar    1  UNL1       -0.3349
      6 C          64.3729   83.9330   14.9160 C.ar    1  UNL1        0.0944
      7 C          63.7221   85.2190   14.5004 C.ar    1  UNL1        0.1171
      8 N          63.3503   85.4415   13.0644 N.ar    1  UNL1       -0.2391
      9 C          63.6293   84.3781   12.0440 C.ar    1  UNL1        0.1210
     10 H          65.0792   82.0256   14.1684 H       1  UNL1        0.1675
     11 C          63.4430   86.2824   15.5209 C.ar    1  UNL1        0.1136
     12 N          62.8622   86.0632   16.8864 N.ar    1  UNL1       -0.2227
     13 C          62.7559   87.3970   17.5645 C.ar    1  UNL1        0.1783
     14 N          63.2711   88.4405   16.6180 N.ar    1  UNL1       -0.3125
     15 C          63.6957   87.7516   15.3550 C.ar    1  UNL1        0.0576
     16 C          64.2576   88.5512   14.2170 C.3     1  UNL1        0.0455
     17 C          64.3949   90.0396   14.3421 C.3     1  UNL1        0.0083
     18 C          63.9703   90.7285   15.6051 C.3     1  UNL1        0.0249
     19 C          63.4084   89.9289   16.7430 C.3     1  UNL1        0.1073
     20 N          61.7107   86.2936   10.3371 N.am    1  UNL1       -0.3039
     21 C          62.7417   85.3867    9.7332 C.2     1  UNL1        0.2488
     22 O          63.1371   85.5528    8.2959 O.2     1  UNL1       -0.2700
     23 H          61.4512   86.1846   11.2805 H       1  UNL1        0.1496
     24 C          60.1333   86.3554    8.9202 C.3     1  UNL1        0.0196
     25 C          61.0752   87.3666    9.5036 C.3     1  UNL1        0.0572
     26 C          62.0170   88.3778   10.0870 C.3     1  UNL1        0.0196
     27 C          60.4396   88.4395    8.6701 C.3     1  UNL1        0.0196
@<TRIPOS>BOND
     1    24    25    1
     2    25    26    1
     3    25    27    1
     4    25    20    1
     5    20    21   am
     6    21    22    2
     7    21     1    1
     8     1     2   ar
     9     2     3   ar
    10     3     4   ar
    11     4     5   ar
    12     5     6   ar
    13     6     7   ar
    14     7    11    1
    15    11    12   ar
    16    12    13   ar
    17    13    14   ar
    18    14    15   ar
    19    15    16    1
    20    16    17    1
    21    17    18    1
    22    18    19    1
    23     7     8   ar
    24     8     9   ar
    25     9     1   ar
    26     9     4    1
    27    15    11   ar
    28    19    14    1
    29    20    23    1
    30     5    10    1
@<TRIPOS>MOLECULE
*****
 27 30 0 0 0
SMALL
GASTEIGER

@<TRIPOS>ATOM
      1 C          65.7909   92.8923   12.8183 C.ar    1  UNL1        0.0930
      2 C          66.3178   93.5335   14.0678 C.ar    1  UNL1        0.1067
      3 N          65.9157   92.6782   15.2326 N.ar    1  UNL1       -0.2252
      4 C          65.1403   91.5085   14.7030 C.ar    1  UNL1        0.1586
      5 N          64.4946   90.3399   15.3868 N.ar    1  UNL1       -0.3349
      6 C          63.7717   89.3037   14.5783 C.ar    1  UNL1        0.0944
      7 C          63.6946   89.4360   13.0862 C.ar    1  UNL1        0.1171
      8 N          64.3403   90.6045   12.4024 N.ar    1  UNL1       -0.2391
      9 C          65.0632   91.6408   13.2109 C.ar    1  UNL1        0.1210
     10 H          64.5452   90.2531   16.3661 H       1  UNL1        0.1675
     11 C          62.9716   88.3997   12.2777 C.ar    1  UNL1        0.1136
     12 N          63.0783   86.9136   12.4514 N.ar    1  UNL1       -0.2227
     13 C          62.1877   86.2630   11.4347 C.ar    1  UNL1        0.1783
     14 N          61.5307   87.3470   10.6327 N.ar    1  UNL1       -0.3125
     15 C          62.0152   88.6676   11.1537 C.ar    1  UNL1        0.0576
     16 C          61.5228   89.9433   10.5373 C.3     1  UNL1        0.0455
     17 C          60.5459   89.8986    9.3999 C.3     1  UNL1        0.0083
     18 C          60.0614   88.5780    8.8789 C.3     1  UNL1        0.0249
     19 C          60.5538   87.3023    9.4953 C.3     1  UNL1        0.1073
     20 N          67.1533   94.2543   11.0750 N.am    1  UNL1       -0.3039
     21 C          65.9617   93.4115   11.4214 C.2     1  UNL1        0.2488
     22 O          64.9411   93.0879   10.3709 O.2     1  UNL1       -0.2700
     23 H          67.8232   94.4667   11.7644 H       1  UNL1        0.1496
     24 C          68.0537   93.5183    9.3009 C.3     1  UNL1        0.0196
     25 C          67.3241   94.7735    9.6781 C.3     1  UNL1        0.0572
     26 C          66.5944   96.0286   10.0553 C.3     1  UNL1        0.0196
     27 C          67.4949   95.2926    8.2813 C.3     1  UNL1        0.0196
@<TRIPOS>BOND
     1    24    25    1
     2    25    26    1
     3    25    27    1
     4    25    20    1
     5    20    21   am
     6    21    22    2
     7    21     1    1
     8     1     2   ar
     9     2     3   ar
    10     3     4   ar
    11     4     5   ar
    12     5     6   ar
    13     6     7   ar
    14     7    11    1
    15    11    12   ar
    16    12    13   ar
    17    13    14   ar
    18    14    15   ar
    19    15    16    1
    20    16    17    1
    21    17    18    1
    22    18    19    1
    23     7     8   ar
    24     8     9   ar
    25     9     1   ar
    26     9     4    1
    27    15    11   ar
    28    19    14    1
    29    20    23    1
    30     5    10    1
@<TRIPOS>MOLECULE
*****
 27 30 0 0 0
SMALL
GASTEIGER

@<TRIPOS>ATOM
      1 C          63.4764   85.3030   15.4189 C.ar    1  UNL1        0.0930
      2 C          62.9782   84.7756   16.7318 C.ar    1  UNL1        0.1067
      3 N          62.7136   85.9465   17.6313 N.ar    1  UNL1       -0.2252
      4 C          63.0482   87.1975   16.8743 C.ar    1  UNL1        0.1586
      5 N          62.9845   88.6474   17.2534 N.ar    1  UNL1       -0.3349
      6 C          63.3923   89.6995   16.2651 C.ar    1  UNL1        0.0944
      7 C          63.8637   89.3018   14.8978 C.ar    1  UNL1        0.1171
      8 N          63.9274   87.8520   14.5187 N.ar    1  UNL1       -0.2391
      9 C          63.5197   86.7998   15.5070 C.ar    1  UNL1        0.1210
     10 H          62.6751   88.9084   18.1508 H       1  UNL1        0.1675
     11 C          64.2715   90.3541   13.9096 C.ar    1  UNL1        0.1136
     12 N          63.8067   90.4550   12.4870 N.ar    1  UNL1       -0.2227
     13 C          64.4635   91.6534   11.8686 C.ar    1  UNL1        0.1783
     14 N          65.3344   92.2931   12.9090 N.ar    1  UNL1       -0.3125
     15 C          65.2157   91.4901   14.1704 C.ar    1  UNL1        0.0576
     16 C          65.9827   91.8970   15.3936 C.3     1  UNL1        0.0455
     17 C          66.8684   93.1070   15.3554 C.3     1  UNL1        0.0083
     18 C          66.9870   93.9100   14.0939 C.3     1  UNL1        0.0249
     19 C          66.2201   93.5031   12.8708 C.3     1  UNL1        0.1073
     20 N          62.8025   83.8379   13.3819 N.am    1  UNL1       -0.3039
     21 C          63.8634   84.4784   14.2272 C.2     1  UNL1        0.2488
     22 O          65.3111   84.2942   13.8807 O.2     1  UNL1       -0.2700
     23 H          61.8523   83.9587   13.6093 H       1  UNL1        0.1496
     24 C          63.0987   84.2306   11.3184 C.3     1  UNL1        0.0196
     25 C          63.1895   83.0132   12.1901 C.3     1  UNL1        0.0572
     26 C          63.2803   81.7960   13.0619 C.3     1  UNL1        0.0196
     27 C          63.5765   82.1887   10.9985 C.3     1  UNL1        0.0196
@<TRIPOS>BOND
     1    24    25    1
     2    25    26    1
     3    25    27    1
     4    25    20    1
     5    20    21   am
     6    21    22    2
     7    21     1    1
     8     1     2   ar
     9     2     3   ar
    10     3     4   ar
    11     4     5   ar
    12     5     6   ar
    13     6     7   ar
    14     7    11    1
    15    11    12   ar
    16    12    13   ar
    17    13    14   ar
    18    14    15   ar
    19    15    16    1
    20    16    17    1
    21    17    18    1
    22    18    19    1
    23     7     8   ar
    24     8     9   ar
    25     9     1   ar
    26     9     4    1
    27    15    11   ar
    28    19    14    1
    29    20    23    1
    30     5    10    1
@<TRIPOS>MOLECULE
*****
 27 30 0 0 0
SMALL
GASTEIGER

@<TRIPOS>ATOM
      1 C          66.1670   93.0085   13.2546 C.ar    1  UNL1        0.0930
      2 C          66.8421   93.0698   14.5927 C.ar    1  UNL1        0.1067
      3 N          66.1899   92.0581   15.4876 N.ar    1  UNL1       -0.2252
      4 C          65.1117   91.3715   14.7027 C.ar    1  UNL1        0.1586
      5 N          64.1411   90.2873   15.0664 N.ar    1  UNL1       -0.3349
      6 C          63.1562   89.7905   14.0499 C.ar    1  UNL1        0.0944
      7 C          63.1420   90.3779   12.6698 C.ar    1  UNL1        0.1171
      8 N          64.1127   91.4621   12.3061 N.ar    1  UNL1       -0.2391
      9 C          65.0975   91.9589   13.3226 C.ar    1  UNL1        0.1210
     10 H          64.1504   89.9017   15.9722 H       1  UNL1        0.1675
     11 C          62.1571   89.8811   11.6533 C.ar    1  UNL1        0.1136
     12 N          61.1678   90.7205   10.9006 N.ar    1  UNL1       -0.2227
     13 C          60.3878   89.8159    9.9932 C.ar    1  UNL1        0.1783
     14 N          60.8951   88.4174   10.1852 N.ar    1  UNL1       -0.3125
     15 C          61.9886   88.4577   11.2112 C.ar    1  UNL1        0.0576
     16 C          62.6896   87.1930   11.6103 C.3     1  UNL1        0.0455
     17 C          62.2971   85.8881   10.9835 C.3     1  UNL1        0.0083
     18 C          61.2036   85.8478    9.9574 C.3     1  UNL1        0.0249
     19 C          60.5027   87.1124    9.5583 C.3     1  UNL1        0.1073
     20 N          66.6558   93.2087   10.7107 N.am    1  UNL1       -0.3039
     21 C          66.5023   93.8493   12.0585 C.2     1  UNL1        0.2488
     22 O          66.6842   95.3304   12.2099 O.2     1  UNL1       -0.2700
     23 H          66.5364   92.2366   10.6113 H       1  UNL1        0.1496
     24 C          68.2622   93.2753    9.3270 C.3     1  UNL1        0.0196
     25 C          66.9912   94.0495    9.5146 C.3     1  UNL1        0.0572
     26 C          65.7201   94.8236    9.7023 C.3     1  UNL1        0.0196
     27 C          67.3266   94.8901    8.3186 C.3     1  UNL1        0.0196
@<TRIPOS>BOND
     1    24    25    1
     2    25    26    1
     3    25    27    1
     4    25    20    1
     5    20    21   am
     6    21    22    2
     7    21     1    1
     8     1     2   ar
     9     2     3   ar
    10     3     4   ar
    11     4     5   ar
    12     5     6   ar
    13     6     7   ar
    14     7    11    1
    15    11    12   ar
    16    12    13   ar
    17    13    14   ar
    18    14    15   ar
    19    15    16    1
    20    16    17    1
    21    17    18    1
    22    18    19    1
    23     7     8   ar
    24     8     9   ar
    25     9     1   ar
    26     9     4    1
    27    15    11   ar
    28    19    14    1
    29    20    23    1
    30     5    10    1
@<TRIPOS>MOLECULE
*****
 27 30 0 0 0
SMALL
GASTEIGER

@<TRIPOS>ATOM
      1 C          61.7727   86.4628   10.6083 C.ar    1  UNL1        0.0930
      2 C          60.5792   86.1363    9.7603 C.ar    1  UNL1        0.1067
      3 N          60.0511   87.4191    9.1899 N.ar    1  UNL1       -0.2252
      4 C          60.9181   88.5384    9.6853 C.ar    1  UNL1        0.1586
      5 N          60.8761   90.0195    9.4514 N.ar    1  UNL1       -0.3349
      6 C          61.8982   90.9095   10.0941 C.ar    1  UNL1        0.0944
      7 C          62.9622   90.3184   10.9708 C.ar    1  UNL1        0.1171
      8 N          63.0042   88.8374   11.2047 N.ar    1  UNL1       -0.2391
      9 C          61.9821   87.9474   10.5619 C.ar    1  UNL1        0.1210
     10 H          60.1778   90.4074    8.8760 H       1  UNL1        0.1675
     11 C          63.9843   91.2085   11.6136 C.ar    1  UNL1        0.1136
     12 N          64.9041   92.1540   10.8993 N.ar    1  UNL1       -0.2227
     13 C          65.7543   92.8393   11.9277 C.ar    1  UNL1        0.1783
     14 N          65.3601   92.3172   13.2775 N.ar    1  UNL1       -0.3125
     15 C          64.2662   91.3094   13.0834 C.ar    1  UNL1        0.0576
     16 C          63.6681   90.6137   14.2701 C.3     1  UNL1        0.0455
     17 C          64.1638   90.9258   15.6509 C.3     1  UNL1        0.0083
     18 C          65.2577   91.9337   15.8450 C.3     1  UNL1        0.0249
     19 C          65.8558   92.6293   14.6584 C.3     1  UNL1        0.1073
     20 N          62.4949   85.3912   12.8623 N.am    1  UNL1       -0.3039
     21 C          62.6098   85.4777   11.3691 C.2     1  UNL1        0.2488
     22 O          63.5617   84.5791   10.6370 O.2     1  UNL1       -0.2700
     23 H          61.8700   85.9810   13.3429 H       1  UNL1        0.1496
     24 C          64.1778   85.5291   14.1463 C.3     1  UNL1        0.0196
     25 C          63.3320   84.4061   13.6231 C.3     1  UNL1        0.0572
     26 C          62.4861   83.2833   13.0999 C.3     1  UNL1        0.0196
     27 C          64.1690   83.4211   14.3839 C.3     1  UNL1        0.0196
@<TRIPOS>BOND
     1    24    25    1
     2    25    26    1
     3    25    27    1
     4    25    20    1
     5    20    21   am
     6    21    22    2
     7    21     1    1
     8     1     2   ar
     9     2     3   ar
    10     3     4   ar
    11     4     5   ar
    12     5     6   ar
    13     6     7   ar
    14     7    11    1
    15    11    12   ar
    16    12    13   ar
    17    13    14   ar
    18    14    15   ar
    19    15    16    1
    20    16    17    1
    21    17    18    1
    22    18    19    1
    23     7     8   ar
    24     8     9   ar
    25     9     1   ar
    26     9     4    1
    27    15    11   ar
    28    19    14    1
    29    20    23    1
    30     5    10    1
