@<TRIPOS>MOLECULE
*****
 25 28 0 0 0
SMALL
GASTEIGER

@<TRIPOS>ATOM
      1 C          65.1734   91.7178   13.5355 C.2     1  UNL1        0.0876
      2 C          65.4663   92.7253   12.4635 C.2     1  UNL1        0.0323
      3 C          66.4590   93.8213   12.7153 C.3     1  UNL1        0.0472
      4 N          64.7664   92.6369   11.1398 N.pl3   1  UNL1       -0.2873
      5 C          63.7736   91.5410   10.8880 C.ar    1  UNL1        0.2019
      6 N          62.9347   91.2020    9.6916 N.ar    1  UNL1       -0.2135
      7 C          62.1234   89.9850   10.0241 C.ar    1  UNL1        0.0999
      8 C          61.1209   89.1997    9.2315 C.ar    1  UNL1        0.0207
      9 C          60.4559   88.0012    9.8408 C.ar    1  UNL1        0.0016
     10 C          60.7934   87.5880   11.2427 C.ar    1  UNL1        0.0016
     11 C          61.7958   88.3733   12.0353 C.ar    1  UNL1        0.0188
     12 C          62.4608   89.5718   11.4260 C.ar    1  UNL1        0.0804
     13 N          63.4807   90.5335   11.9599 N.ar    1  UNL1       -0.2933
     14 C          64.1806   90.6219   13.2837 C.3     1  UNL1        0.1450
     15 H          64.9586   93.2982   10.4362 H       1  UNL1        0.1547
     16 C          63.8877   89.6143   14.3557 C.ar    1  UNL1        0.0655
     17 C          63.0373   89.8412   15.5704 C.ar    1  UNL1        0.1417
     18 N          63.0180   88.5701   16.3665 N.ar    1  UNL1       -0.0755
     19 O          63.8563   87.5576   15.6440 O.2     1  UNL1       -0.3504
     20 C          64.3938   88.2030   14.4012 C.ar    1  UNL1        0.2116
     21 C          65.8732   91.8062   14.8593 C.2     1  UNL1        0.3402
     22 O          65.1615   92.3837   16.0467 O.2     1  UNL1       -0.2451
     23 O          67.2847   91.3170   14.9956 O.3     1  UNL1       -0.4456
     24 C          68.4327   93.5191   15.7590 C.3     1  UNL1        0.0513
     25 C          68.2444   92.0373   15.8956 C.3     1  UNL1        0.2089
@<TRIPOS>BOND
     1    24    25    1
     2    25    23    1
     3    23    21    1
     4    21    22    2
     5    21     1    1
     6     1     2    2
     7     2     3    1
     8     2     4    1
     9     4     5    1
    10     5     6   ar
    11     6     7   ar
    12     7     8   ar
    13     8     9   ar
    14     9    10   ar
    15    10    11   ar
    16    11    12   ar
    17    12    13   ar
    18    13    14    1
    19    14    16    1
    20    16    17   ar
    21    17    18   ar
    22    18    19   ar
    23    19    20   ar
    24    14     1    1
    25    20    16   ar
    26    13     5   ar
    27    12     7   ar
    28     4    15    1
@<TRIPOS>MOLECULE
*****
 25 28 0 0 0
SMALL
GASTEIGER

@<TRIPOS>ATOM
      1 C          62.9579   88.5936   12.1926 C.2     1  UNL1        0.0876
      2 C          63.6971   88.9386   13.4514 C.2     1  UNL1        0.0323
      3 C          63.9162   90.3753   13.8227 C.3     1  UNL1        0.0472
      4 N          64.2173   87.8468   14.3388 N.pl3   1  UNL1       -0.2873
      5 C          63.9983   86.4101   13.9674 C.ar    1  UNL1        0.2019
      6 N          64.3921   85.1284   14.6397 N.ar    1  UNL1       -0.2135
      7 C          63.8962   83.9912   13.7965 C.ar    1  UNL1        0.0999
      8 C          63.9919   82.5034   13.9612 C.ar    1  UNL1        0.0207
      9 C          63.3872   81.5945   12.9325 C.ar    1  UNL1        0.0016
     10 C          62.6870   82.1735   11.7390 C.ar    1  UNL1        0.0016
     11 C          62.5913   83.6613   11.5742 C.ar    1  UNL1        0.0188
     12 C          63.1959   84.5702   12.6030 C.ar    1  UNL1        0.0804
     13 N          63.2590   86.0651   12.7086 N.ar    1  UNL1       -0.2933
     14 C          62.7388   87.1569   11.8213 C.3     1  UNL1        0.1450
     15 H          64.7025   88.0732   15.1649 H       1  UNL1        0.1547
     16 C          61.9995   86.8119   10.5624 C.ar    1  UNL1        0.0655
     17 C          60.5139   86.8787   10.3660 C.ar    1  UNL1        0.1417
     18 N          60.2124   86.4477    8.9612 N.ar    1  UNL1       -0.0755
     19 O          61.5115   86.1146    8.2895 O.2     1  UNL1       -0.3504
     20 C          62.6161   86.3397    9.2791 C.ar    1  UNL1        0.2116
     21 C          62.4376   89.6854   11.3052 C.2     1  UNL1        0.3402
     22 O          61.0464   90.2112   11.5001 O.2     1  UNL1       -0.2451
     23 O          63.3086   90.2512   10.2229 O.3     1  UNL1       -0.4456
     24 C          64.8889   92.1909   10.9228 C.3     1  UNL1        0.0513
     25 C          63.6518   91.7113   10.2231 C.3     1  UNL1        0.2089
@<TRIPOS>BOND
     1    24    25    1
     2    25    23    1
     3    23    21    1
     4    21    22    2
     5    21     1    1
     6     1     2    2
     7     2     3    1
     8     2     4    1
     9     4     5    1
    10     5     6   ar
    11     6     7   ar
    12     7     8   ar
    13     8     9   ar
    14     9    10   ar
    15    10    11   ar
    16    11    12   ar
    17    12    13   ar
    18    13    14    1
    19    14    16    1
    20    16    17   ar
    21    17    18   ar
    22    18    19   ar
    23    19    20   ar
    24    14     1    1
    25    20    16   ar
    26    13     5   ar
    27    12     7   ar
    28     4    15    1
@<TRIPOS>MOLECULE
*****
 25 28 0 0 0
SMALL
GASTEIGER

@<TRIPOS>ATOM
      1 C          62.7124   88.8759   11.6169 C.2     1  UNL1        0.0876
      2 C          63.3922   89.3903   12.8511 C.2     1  UNL1        0.0323
      3 C          63.5365   90.8675   13.0674 C.3     1  UNL1        0.0472
      4 N          63.9276   88.4273   13.8689 N.pl3   1  UNL1       -0.2873
      5 C          63.7833   86.9500   13.6526 C.ar    1  UNL1        0.2019
      6 N          64.2081   85.7691   14.4740 N.ar    1  UNL1       -0.2135
      7 C          63.7909   84.5248   13.7475 C.ar    1  UNL1        0.0999
      8 C          63.9444   83.0700   14.0788 C.ar    1  UNL1        0.0207
      9 C          63.4152   82.0271   13.1395 C.ar    1  UNL1        0.0016
     10 C          62.7325   82.4391   11.8689 C.ar    1  UNL1        0.0016
     11 C          62.5790   83.8939   11.5377 C.ar    1  UNL1        0.0188
     12 C          63.1082   84.9368   12.4770 C.ar    1  UNL1        0.0804
     13 N          63.1035   86.4357   12.4184 N.ar    1  UNL1       -0.2933
     14 C          62.5680   87.3986   11.4005 C.3     1  UNL1        0.1450
     15 H          64.3738   88.7649   14.6790 H       1  UNL1        0.1547
     16 C          61.8882   86.8842   10.1662 C.ar    1  UNL1        0.0655
     17 C          60.4069   86.8007    9.9454 C.ar    1  UNL1        0.1417
     18 N          60.1737   86.2280    8.5788 N.ar    1  UNL1       -0.0755
     19 O          61.5107   85.9576    7.9550 O.2     1  UNL1       -0.3504
     20 C          62.5704   86.3632    8.9361 C.ar    1  UNL1        0.2116
     21 C          62.1769   89.8388   10.5989 C.2     1  UNL1        0.3402
     22 O          63.1218   90.6751    9.7879 O.2     1  UNL1       -0.2451
     23 O          60.6966   89.9654   10.3921 O.3     1  UNL1       -0.4456
     24 C          59.1224   89.3322   12.3595 C.3     1  UNL1        0.0513
     25 C          59.8125   90.3758   11.5323 C.3     1  UNL1        0.2089
@<TRIPOS>BOND
     1    24    25    1
     2    25    23    1
     3    23    21    1
     4    21    22    2
     5    21     1    1
     6     1     2    2
     7     2     3    1
     8     2     4    1
     9     4     5    1
    10     5     6   ar
    11     6     7   ar
    12     7     8   ar
    13     8     9   ar
    14     9    10   ar
    15    10    11   ar
    16    11    12   ar
    17    12    13   ar
    18    13    14    1
    19    14    16    1
    20    16    17   ar
    21    17    18   ar
    22    18    19   ar
    23    19    20   ar
    24    14     1    1
    25    20    16   ar
    26    13     5   ar
    27    12     7   ar
    28     4    15    1
@<TRIPOS>MOLECULE
*****
 25 28 0 0 0
SMALL
GASTEIGER

@<TRIPOS>ATOM
      1 C          62.8784   89.9177   11.7520 C.2     1  UNL1        0.0876
      2 C          62.9650   90.7516   10.5082 C.2     1  UNL1        0.0323
      3 C          62.1217   90.4095    9.3157 C.3     1  UNL1        0.0472
      4 N          63.8949   91.9274   10.4567 N.pl3   1  UNL1       -0.2873
      5 C          64.7382   92.2694   11.6491 C.ar    1  UNL1        0.2019
      6 N          65.7386   93.3605   11.8913 N.ar    1  UNL1       -0.2135
      7 C          66.2703   93.2011   13.2848 C.ar    1  UNL1        0.0999
      8 C          67.2794   93.9855   14.0699 C.ar    1  UNL1        0.0207
      9 C          67.6166   93.5802   15.4742 C.ar    1  UNL1        0.0016
     10 C          66.9448   92.3905   16.0933 C.ar    1  UNL1        0.0016
     11 C          65.9358   91.6061   15.3082 C.ar    1  UNL1        0.0188
     12 C          65.5985   92.0114   13.9039 C.ar    1  UNL1        0.0804
     13 N          64.6516   91.4356   12.8930 N.ar    1  UNL1       -0.2933
     14 C          63.7217   90.2598   12.9445 C.3     1  UNL1        0.1450
     15 H          63.9517   92.4747    9.6403 H       1  UNL1        0.1547
     16 C          63.6351   89.4259   14.1884 C.ar    1  UNL1        0.0655
     17 C          62.9291   89.8049   15.4565 C.ar    1  UNL1        0.1417
     18 N          63.0970   88.6798   16.4343 N.ar    1  UNL1       -0.0755
     19 O          63.9066   87.6056   15.7706 O.2     1  UNL1       -0.3504
     20 C          64.2392   88.0667   14.3825 C.ar    1  UNL1        0.2116
     21 C          61.9485   88.7418   11.8035 C.2     1  UNL1        0.3402
     22 O          60.5075   88.9408   12.1694 O.2     1  UNL1       -0.2451
     23 O          62.4596   87.3671   11.4892 O.3     1  UNL1       -0.4456
     24 C          62.3104   86.1717    9.1873 C.3     1  UNL1        0.0513
     25 C          61.7140   86.4919   10.5259 C.3     1  UNL1        0.2089
@<TRIPOS>BOND
     1    24    25    1
     2    25    23    1
     3    23    21    1
     4    21    22    2
     5    21     1    1
     6     1     2    2
     7     2     3    1
     8     2     4    1
     9     4     5    1
    10     5     6   ar
    11     6     7   ar
    12     7     8   ar
    13     8     9   ar
    14     9    10   ar
    15    10    11   ar
    16    11    12   ar
    17    12    13   ar
    18    13    14    1
    19    14    16    1
    20    16    17   ar
    21    17    18   ar
    22    18    19   ar
    23    19    20   ar
    24    14     1    1
    25    20    16   ar
    26    13     5   ar
    27    12     7   ar
    28     4    15    1
@<TRIPOS>MOLECULE
*****
 25 28 0 0 0
SMALL
GASTEIGER

@<TRIPOS>ATOM
      1 C          63.3101   84.4392   12.5210 C.2     1  UNL1        0.0876
      2 C          63.9104   84.4961   13.8944 C.2     1  UNL1        0.0323
      3 C          64.2195   83.2266   14.6311 C.3     1  UNL1        0.0472
      4 N          64.2016   85.8227   14.5311 N.pl3   1  UNL1       -0.2873
      5 C          63.8925   87.0922   13.7944 C.ar    1  UNL1        0.2019
      6 N          64.0681   88.5354   14.1640 N.ar    1  UNL1       -0.2135
      7 C          63.5764   89.3703   13.0189 C.ar    1  UNL1        0.0999
      8 C          63.5034   90.8549   12.8180 C.ar    1  UNL1        0.0207
      9 C          62.9508   91.4124   11.5398 C.ar    1  UNL1        0.0016
     10 C          62.4712   90.4853   10.4626 C.ar    1  UNL1        0.0016
     11 C          62.5442   89.0007   10.6635 C.ar    1  UNL1        0.0188
     12 C          63.0968   88.4431   11.9417 C.ar    1  UNL1        0.0804
     13 N          63.2922   87.0353   12.4210 N.ar    1  UNL1       -0.2933
     14 C          63.0009   85.7087   11.7843 C.3     1  UNL1        0.1450
     15 H          64.5956   85.8601   15.4326 H       1  UNL1        0.1547
     16 C          62.4006   85.6517   10.4107 C.ar    1  UNL1        0.0655
     17 C          63.1157   85.2604    9.1515 C.ar    1  UNL1        0.1417
     18 N          62.1367   85.3429    8.0180 N.ar    1  UNL1       -0.0755
     19 O          60.8168   85.7850    8.5766 O.2     1  UNL1       -0.3504
     20 C          60.9798   85.9759   10.0554 C.ar    1  UNL1        0.2116
     21 C          63.0188   83.1126   11.8841 C.2     1  UNL1        0.3402
     22 O          63.9507   82.5574   10.8481 O.2     1  UNL1       -0.2451
     23 O          61.7958   82.3413   12.2834 O.3     1  UNL1       -0.4456
     24 C          60.8160   80.8081   14.1379 C.3     1  UNL1        0.0513
     25 C          61.9223   81.1483   13.1838 C.3     1  UNL1        0.2089
@<TRIPOS>BOND
     1    24    25    1
     2    25    23    1
     3    23    21    1
     4    21    22    2
     5    21     1    1
     6     1     2    2
     7     2     3    1
     8     2     4    1
     9     4     5    1
    10     5     6   ar
    11     6     7   ar
    12     7     8   ar
    13     8     9   ar
    14     9    10   ar
    15    10    11   ar
    16    11    12   ar
    17    12    13   ar
    18    13    14    1
    19    14    16    1
    20    16    17   ar
    21    17    18   ar
    22    18    19   ar
    23    19    20   ar
    24    14     1    1
    25    20    16   ar
    26    13     5   ar
    27    12     7   ar
    28     4    15    1
@<TRIPOS>MOLECULE
*****
 25 28 0 0 0
SMALL
GASTEIGER

@<TRIPOS>ATOM
      1 C          60.8087   87.5425    8.7985 C.2     1  UNL1        0.0876
      2 C          60.2850   88.9045    8.4511 C.2     1  UNL1        0.0323
      3 C          59.4257   89.0901    7.2357 C.3     1  UNL1        0.0472
      4 N          60.6207   90.0809    9.3191 N.pl3   1  UNL1       -0.2873
      5 C          61.4800   89.8952   10.5345 C.ar    1  UNL1        0.2019
      6 N          61.9744   90.8601   11.5711 N.ar    1  UNL1       -0.2135
      7 C          62.8035   90.0945   12.5592 C.ar    1  UNL1        0.0999
      8 C          63.5443   90.5210   13.7917 C.ar    1  UNL1        0.0207
      9 C          64.3033   89.5094   14.5983 C.ar    1  UNL1        0.0016
     10 C          64.3214   88.0713   14.1723 C.ar    1  UNL1        0.0016
     11 C          63.5805   87.6447   12.9398 C.ar    1  UNL1        0.0188
     12 C          62.8216   88.6563   12.1332 C.ar    1  UNL1        0.0804
     13 N          62.0036   88.5332   10.8819 N.ar    1  UNL1       -0.2933
     14 C          61.6680   87.3568   10.0139 C.3     1  UNL1        0.1450
     15 H          60.2770   90.9748    9.0911 H       1  UNL1        0.1547
     16 C          62.1916   85.9947   10.3613 C.ar    1  UNL1        0.0655
     17 C          63.2082   85.2155    9.5807 C.ar    1  UNL1        0.1417
     18 N          63.4354   83.9120   10.2873 N.ar    1  UNL1       -0.0755
     19 O          62.5593   83.8856   11.5045 O.2     1  UNL1       -0.3504
     20 C          61.7905   85.1728   11.5503 C.ar    1  UNL1        0.2116
     21 C          60.4730   86.3660    7.9305 C.2     1  UNL1        0.3402
     22 O          59.0412   85.9663    7.7300 O.2     1  UNL1       -0.2451
     23 O          61.5691   85.5893    7.2632 O.3     1  UNL1       -0.4456
     24 C          62.1750   84.1072    5.2172 C.3     1  UNL1        0.0513
     25 C          61.2304   84.4693    6.3246 C.3     1  UNL1        0.2089
@<TRIPOS>BOND
     1    24    25    1
     2    25    23    1
     3    23    21    1
     4    21    22    2
     5    21     1    1
     6     1     2    2
     7     2     3    1
     8     2     4    1
     9     4     5    1
    10     5     6   ar
    11     6     7   ar
    12     7     8   ar
    13     8     9   ar
    14     9    10   ar
    15    10    11   ar
    16    11    12   ar
    17    12    13   ar
    18    13    14    1
    19    14    16    1
    20    16    17   ar
    21    17    18   ar
    22    18    19   ar
    23    19    20   ar
    24    14     1    1
    25    20    16   ar
    26    13     5   ar
    27    12     7   ar
    28     4    15    1
@<TRIPOS>MOLECULE
*****
 25 28 0 0 0
SMALL
GASTEIGER

@<TRIPOS>ATOM
      1 C          63.8917   86.5317   13.6729 C.2     1  UNL1        0.0876
      2 C          63.9658   87.9912   14.0110 C.2     1  UNL1        0.0323
      3 C          64.7154   88.4417   15.2297 C.3     1  UNL1        0.0472
      4 N          63.2903   89.0002   13.1305 N.pl3   1  UNL1       -0.2873
      5 C          62.5406   88.5498   11.9118 C.ar    1  UNL1        0.2019
      6 N          61.7810   89.3075   10.8635 N.ar    1  UNL1       -0.2135
      7 C          61.2374   88.3163    9.8776 C.ar    1  UNL1        0.0999
      8 C          60.4114   88.4845    8.6369 C.ar    1  UNL1        0.0207
      9 C          60.0091   87.2824    7.8351 C.ar    1  UNL1        0.0016
     10 C          60.4329   85.9120    8.2740 C.ar    1  UNL1        0.0016
     11 C          61.2589   85.7438    9.5146 C.ar    1  UNL1        0.0188
     12 C          61.6612   86.9460   10.3165 C.ar    1  UNL1        0.0804
     13 N          62.4666   87.0903   11.5736 N.ar    1  UNL1       -0.2933
     14 C          63.1421   86.0812   12.4542 C.3     1  UNL1        0.1450
     15 H          63.3388   89.9582   13.3524 H       1  UNL1        0.1547
     16 C          63.0681   84.6216   12.1161 C.ar    1  UNL1        0.0655
     17 C          63.8025   83.9363   11.0020 C.ar    1  UNL1        0.1417
     18 N          63.4349   82.4823   11.0302 N.ar    1  UNL1       -0.0755
     19 O          62.4734   82.2690   12.1615 O.2     1  UNL1       -0.3504
     20 C          62.2467   83.5912   12.8327 C.ar    1  UNL1        0.2116
     21 C          64.5673   85.5226   14.5535 C.2     1  UNL1        0.3402
     22 O          66.0121   85.1839   14.3344 O.2     1  UNL1       -0.2451
     23 O          63.7981   84.8522   15.6530 O.3     1  UNL1       -0.4456
     24 C          62.7272   86.2732   17.5460 C.3     1  UNL1        0.0513
     25 C          62.5999   85.5286   16.2502 C.3     1  UNL1        0.2089
@<TRIPOS>BOND
     1    24    25    1
     2    25    23    1
     3    23    21    1
     4    21    22    2
     5    21     1    1
     6     1     2    2
     7     2     3    1
     8     2     4    1
     9     4     5    1
    10     5     6   ar
    11     6     7   ar
    12     7     8   ar
    13     8     9   ar
    14     9    10   ar
    15    10    11   ar
    16    11    12   ar
    17    12    13   ar
    18    13    14    1
    19    14    16    1
    20    16    17   ar
    21    17    18   ar
    22    18    19   ar
    23    19    20   ar
    24    14     1    1
    25    20    16   ar
    26    13     5   ar
    27    12     7   ar
    28     4    15    1
@<TRIPOS>MOLECULE
*****
 25 28 0 0 0
SMALL
GASTEIGER

@<TRIPOS>ATOM
      1 C          63.3484   88.1818   12.7113 C.2     1  UNL1        0.0876
      2 C          64.0860   88.3924   14.0003 C.2     1  UNL1        0.0323
      3 C          64.4054   89.7830   14.4632 C.3     1  UNL1        0.0472
      4 N          64.5043   87.2123   14.8264 N.pl3   1  UNL1       -0.2873
      5 C          64.1849   85.8217   14.3635 C.ar    1  UNL1        0.2019
      6 N          64.4671   84.4752   14.9612 N.ar    1  UNL1       -0.2135
      7 C          63.9039   83.4325   14.0416 C.ar    1  UNL1        0.0999
      8 C          63.8836   81.9345   14.1155 C.ar    1  UNL1        0.0207
      9 C          63.2329   81.1386   13.0232 C.ar    1  UNL1        0.0016
     10 C          62.6026   81.8407   11.8571 C.ar    1  UNL1        0.0016
     11 C          62.6229   83.3387   11.7833 C.ar    1  UNL1        0.0188
     12 C          63.2735   84.1346   12.8756 C.ar    1  UNL1        0.0804
     13 N          63.4472   85.6112   13.0745 N.ar    1  UNL1       -0.2933
     14 C          63.0290   86.7912   12.2484 C.3     1  UNL1        0.1450
     15 H          64.9884   87.3505   15.6724 H       1  UNL1        0.1547
     16 C          62.2912   86.5808   10.9593 C.ar    1  UNL1        0.0655
     17 C          62.9142   86.3824    9.6092 C.ar    1  UNL1        0.1417
     18 N          61.8090   86.2108    8.6097 N.ar    1  UNL1       -0.0755
     19 O          60.5032   86.3030    9.3419 O.2     1  UNL1       -0.3504
     20 C          60.8012   86.5317   10.7941 C.ar    1  UNL1        0.2116
     21 C          62.9300   89.3620   11.8851 C.2     1  UNL1        0.3402
     22 O          63.9513   90.3680   11.4435 O.2     1  UNL1       -0.2451
     23 O          61.4906   89.5359   11.5007 O.3     1  UNL1       -0.4456
     24 C          59.7396   89.9783    9.6330 C.3     1  UNL1        0.0513
     25 C          61.1364   90.1140   10.1627 C.3     1  UNL1        0.2089
@<TRIPOS>BOND
     1    24    25    1
     2    25    23    1
     3    23    21    1
     4    21    22    2
     5    21     1    1
     6     1     2    2
     7     2     3    1
     8     2     4    1
     9     4     5    1
    10     5     6   ar
    11     6     7   ar
    12     7     8   ar
    13     8     9   ar
    14     9    10   ar
    15    10    11   ar
    16    11    12   ar
    17    12    13   ar
    18    13    14    1
    19    14    16    1
    20    16    17   ar
    21    17    18   ar
    22    18    19   ar
    23    19    20   ar
    24    14     1    1
    25    20    16   ar
    26    13     5   ar
    27    12     7   ar
    28     4    15    1
@<TRIPOS>MOLECULE
*****
 25 28 0 0 0
SMALL
GASTEIGER

@<TRIPOS>ATOM
      1 C          62.8230   84.9682   10.9444 C.2     1  UNL1        0.0876
      2 C          62.3939   85.6880    9.7003 C.2     1  UNL1        0.0323
      3 C          62.0260   84.9090    8.4723 C.3     1  UNL1        0.0472
      4 N          62.3326   87.1866    9.6842 N.pl3   1  UNL1       -0.2873
      5 C          62.7005   87.9655   10.9122 C.ar    1  UNL1        0.2019
      6 N          62.7362   89.4385   11.1932 N.ar    1  UNL1       -0.2135
      7 C          63.1874   89.6292   12.6110 C.ar    1  UNL1        0.0999
      8 C          63.4083   90.8616   13.4369 C.ar    1  UNL1        0.0207
      9 C          63.8723   90.7389   14.8580 C.ar    1  UNL1        0.0016
     10 C          64.1154   89.3837   15.4532 C.ar    1  UNL1        0.0016
     11 C          63.8945   88.1512   14.6274 C.ar    1  UNL1        0.0188
     12 C          63.4305   88.2739   13.2062 C.ar    1  UNL1        0.0804
     13 N          63.1296   87.2458   12.1563 N.ar    1  UNL1       -0.2933
     14 C          63.1908   85.7471   12.1724 C.3     1  UNL1        0.1450
     15 H          62.0510   87.6590    8.8676 H       1  UNL1        0.1547
     16 C          63.6199   85.0273   13.4166 C.ar    1  UNL1        0.0655
     17 C          62.7383   84.6680   14.5758 C.ar    1  UNL1        0.1417
     18 N          63.5796   83.9591   15.5955 N.ar    1  UNL1       -0.0755
     19 O          64.9810   83.8803   15.0666 O.2     1  UNL1       -0.3504
     20 C          65.0059   84.5405   13.7199 C.ar    1  UNL1        0.2116
     21 C          62.8842   83.4695   10.9606 C.2     1  UNL1        0.3402
     22 O          63.8902   82.7509   10.1111 O.2     1  UNL1       -0.2451
     23 O          61.9395   82.6895   11.8261 O.3     1  UNL1       -0.4456
     24 C          61.7048   81.1288   13.8898 C.3     1  UNL1        0.0513
     25 C          62.4514   81.5525   12.6598 C.3     1  UNL1        0.2089
@<TRIPOS>BOND
     1    24    25    1
     2    25    23    1
     3    23    21    1
     4    21    22    2
     5    21     1    1
     6     1     2    2
     7     2     3    1
     8     2     4    1
     9     4     5    1
    10     5     6   ar
    11     6     7   ar
    12     7     8   ar
    13     8     9   ar
    14     9    10   ar
    15    10    11   ar
    16    11    12   ar
    17    12    13   ar
    18    13    14    1
    19    14    16    1
    20    16    17   ar
    21    17    18   ar
    22    18    19   ar
    23    19    20   ar
    24    14     1    1
    25    20    16   ar
    26    13     5   ar
    27    12     7   ar
    28     4    15    1
