@<TRIPOS>MOLECULE
*****
 33 37 0 0 0
SMALL
GASTEIGER

@<TRIPOS>ATOM
      1 C          59.1265   90.6021    5.6201 C.2     1  UNL1        0.2493
      2 O          57.6636   90.9331    5.5966 O.2     1  UNL1       -0.2699
      3 N          60.0528   91.2257    4.6185 N.am    1  UNL1       -0.2715
      4 C          61.5156   90.8948    4.6421 C.3     1  UNL1        0.1003
      5 C          62.4418   91.5183    3.6405 C.3     1  UNL1        0.0650
      6 C          61.9052   92.4729    2.6153 C.ar    1  UNL1        0.0367
      7 C          60.4424   92.8038    2.5917 C.ar    1  UNL1        0.0108
      8 C          60.2042   93.7726    1.4716 C.ar    1  UNL1        0.0145
      9 C          58.9594   94.4455    0.9741 C.ar    1  UNL1        0.0012
     10 C          59.0302   95.3862   -0.1921 C.ar    1  UNL1        0.0001
     11 C          60.3459   95.6540   -0.8608 C.ar    1  UNL1        0.0015
     12 C          61.5908   94.9811   -0.3634 C.ar    1  UNL1        0.0172
     13 C          61.5199   94.0404    0.8028 C.ar    1  UNL1        0.0597
     14 N          62.5712   93.2371    1.5097 N.ar    1  UNL1       -0.3256
     15 C          59.5162   92.1802    3.5933 C.3     1  UNL1        0.1216
     16 C          60.7366   87.7387    8.6957 C.ar    1  UNL1        0.0000
     17 C          60.8402   89.2181    8.9213 C.ar    1  UNL1        0.0001
     18 C          60.3035   90.1725    7.8961 C.ar    1  UNL1        0.0045
     19 C          59.6632   89.6476    6.6453 C.ar    1  UNL1        0.0536
     20 C          59.5596   88.1683    6.4197 C.ar    1  UNL1        0.0045
     21 C          60.0964   87.2139    7.4449 C.ar    1  UNL1        0.0001
     22 C          62.3468   84.8755   11.7712 C.ar    1  UNL1       -0.0222
     23 C          61.5294   86.0572   12.2019 C.ar    1  UNL1       -0.0043
     24 C          60.9927   87.0116   11.1767 C.ar    1  UNL1       -0.0003
     25 C          61.2733   86.7844    9.7208 C.ar    1  UNL1       -0.0000
     26 C          62.0907   85.6026    9.2902 C.ar    1  UNL1       -0.0003
     27 C          62.6274   84.6482   10.3153 C.ar    1  UNL1       -0.0043
     28 C          62.6690   82.4456   12.6324 C.3     1  UNL1        0.0050
     29 C          62.8835   83.9211   12.7964 C.3     1  UNL1        0.0264
     30 C          64.0319   93.2040    1.1705 C.3     1  UNL1        0.1474
     31 C          64.8348   94.4708    1.1874 C.2     1  UNL1        0.0732
     32 O          64.9910   95.2429    2.4640 O.co2   1  UNL1       -0.5472
     33 O          65.4816   94.9658   -0.0723 O.co2   1  UNL1       -0.5472
@<TRIPOS>UNITY_ATOM_ATTR
32 1
charge -1
@<TRIPOS>BOND
     1    28    29    1
     2    29    22    1
     3    22    23   ar
     4    23    24   ar
     5    24    25   ar
     6    25    16    1
     7    16    17   ar
     8    17    18   ar
     9    18    19   ar
    10    19     1    1
    11     1     2    2
    12     1     3   am
    13     3     4    1
    14     4     5    1
    15     5     6    1
    16     6     7   ar
    17     7     8   ar
    18     8     9   ar
    19     9    10   ar
    20    10    11   ar
    21    11    12   ar
    22    12    13   ar
    23    13    14   ar
    24    14    30    1
    25    30    31    1
    26    31    32   ar
    27    31    33   ar
    28     7    15    1
    29    19    20   ar
    30    20    21   ar
    31    25    26   ar
    32    26    27   ar
    33    27    22   ar
    34    21    16   ar
    35    15     3    1
    36    14     6   ar
    37    13     8   ar
