@<TRIPOS>MOLECULE
*****
 32 34 0 0 0
SMALL
GASTEIGER

@<TRIPOS>ATOM
      1 C          65.6701   93.3549   11.4294 C.3     1  UNL1        0.0376
      2 C          64.9369   92.9682   10.1793 C.3     1  UNL1        0.0075
      3 C          64.0477   91.7602   10.1745 C.3     1  UNL1        0.0219
      4 C          63.8917   90.9389   11.4200 C.3     1  UNL1        0.0950
      5 N          64.6249   91.3256   12.6701 N.am    1  UNL1       -0.2637
      6 C          64.4689   90.5043   13.9156 C.2     1  UNL1        0.3077
      7 O          65.2021   90.8911   15.1657 O.2     1  UNL1       -0.2522
      8 N          63.5797   89.2963   13.9109 N.am    1  UNL1       -0.2681
      9 C          65.5141   92.5336   12.6749 C.3     1  UNL1        0.0989
     10 H          63.0985   89.0424   13.0904 H       1  UNL1        0.1564
     11 C          63.4237   88.4750   15.1564 C.ar    1  UNL1        0.0516
     12 C          62.8862   89.1046   16.4074 C.ar    1  UNL1        0.0156
     13 C          62.7302   88.2835   17.6528 C.ar    1  UNL1        0.0127
     14 C          63.1117   86.8327   17.6474 C.ar    1  UNL1        0.0578
     15 CL         62.9557   86.0116   18.8930 Cl      1  UNL1       -0.0822
     16 C          63.6492   86.2032   16.3965 C.ar    1  UNL1        0.0127
     17 C          63.8052   87.0244   15.1510 C.ar    1  UNL1        0.0156
     18 C          66.1371   94.4416   10.5068 C.ar    1  UNL1       -0.0173
     19 C          65.4377   95.7685   10.4964 C.ar    1  UNL1       -0.0043
     20 C          65.9047   96.8552    9.5739 C.ar    1  UNL1       -0.0003
     21 C          67.0711   96.6149    8.6618 C.ar    1  UNL1       -0.0001
     22 C          67.7705   95.2880    8.6722 C.ar    1  UNL1        0.0035
     23 C          67.3034   94.2013    9.5948 C.ar    1  UNL1        0.0675
     24 C          68.0028   92.8743    9.6053 C.3     1  UNL1        0.4183
     25 F          68.7021   91.5474    9.6157 F       1  UNL1       -0.1659
     26 F          68.0356   92.6009   10.6635 F       1  UNL1       -0.1659
     27 F          68.1308   92.9300    8.1118 F       1  UNL1       -0.1659
     28 C          66.5655   94.1191   12.3592 C.3     1  UNL1        0.0116
     29 C          66.5002   93.8698   13.8368 C.3     1  UNL1        0.0421
     30 O          68.6724   92.4459   13.9007 O.co2   1  UNL1       -0.5492
     31 C          67.7165   93.3879   14.5706 C.2     1  UNL1        0.0503
     32 O          67.9769   93.8482   15.9743 O.co2   1  UNL1       -0.5492
@<TRIPOS>UNITY_ATOM_ATTR
30 1
charge -1
@<TRIPOS>BOND
     1    30    31   ar
     2    31    32   ar
     3    31    29    1
     4    29    28    1
     5    28     1    1
     6     1    18    1
     7    18    19   ar
     8    19    20   ar
     9    20    21   ar
    10    21    22   ar
    11    22    23   ar
    12    23    24    1
    13    24    25    1
    14    24    26    1
    15    24    27    1
    16     1     2    1
    17     2     3    1
    18     3     4    1
    19     4     5    1
    20     5     6   am
    21     6     7    2
    22     6     8   am
    23     8    11    1
    24    11    12   ar
    25    12    13   ar
    26    13    14   ar
    27    14    15    1
    28    14    16   ar
    29    16    17   ar
    30     5     9    1
    31     9     1    1
    32    23    18   ar
    33    17    11   ar
    34     8    10    1
@<TRIPOS>MOLECULE
*****
 32 34 0 0 0
SMALL
GASTEIGER

@<TRIPOS>ATOM
      1 C          63.0226   84.3619   13.4954 C.3     1  UNL1        0.0376
      2 C          63.4629   83.8962   14.8516 C.3     1  UNL1        0.0075
      3 C          64.1660   84.8434   15.7781 C.3     1  UNL1        0.0219
      4 C          64.4289   86.2563   15.3483 C.3     1  UNL1        0.0950
      5 N          63.9886   86.7220   13.9922 N.am    1  UNL1       -0.2637
      6 C          64.2515   88.1349   13.5624 C.2     1  UNL1        0.3077
      7 O          63.8112   88.6005   12.2062 O.2     1  UNL1       -0.2522
      8 N          64.9547   89.0821   14.4889 N.am    1  UNL1       -0.2681
      9 C          63.2855   85.7748   13.0656 C.3     1  UNL1        0.0989
     10 H          65.2436   88.7765   15.3790 H       1  UNL1        0.1564
     11 C          65.2175   90.4949   14.0591 C.ar    1  UNL1        0.0516
     12 C          66.1068   91.3768   14.8847 C.ar    1  UNL1        0.0156
     13 C          66.3697   92.7896   14.4550 C.ar    1  UNL1        0.0127
     14 C          65.7433   93.3207   13.1997 C.ar    1  UNL1        0.0578
     15 CL         66.0062   94.7336   12.7700 Cl      1  UNL1       -0.0822
     16 C          64.8541   92.4388   12.3742 C.ar    1  UNL1        0.0127
     17 C          64.5912   91.0259   12.8039 C.ar    1  UNL1        0.0156
     18 C          62.5498   82.9391   13.4484 C.ar    1  UNL1       -0.0173
     19 C          61.5045   82.4639   14.4136 C.ar    1  UNL1       -0.0043
     20 C          61.0318   81.0411   14.3666 C.ar    1  UNL1       -0.0003
     21 C          61.6042   80.0936   13.3544 C.ar    1  UNL1       -0.0001
     22 C          62.6494   80.5688   12.3892 C.ar    1  UNL1        0.0035
     23 C          63.1222   81.9916   12.4362 C.ar    1  UNL1        0.0675
     24 C          64.1675   82.4668   11.4710 C.3     1  UNL1        0.4183
     25 F          65.2127   82.9421   10.5058 F       1  UNL1       -0.1659
     26 F          64.9954   82.7826   12.1119 F       1  UNL1       -0.1659
     27 F          63.2578   82.1390   10.3244 F       1  UNL1       -0.1659
     28 C          62.4181   84.3334   12.1228 C.3     1  UNL1        0.0116
     29 C          62.0000   85.6128   11.4608 C.3     1  UNL1        0.0421
     30 O          60.6395   86.2713    9.3476 O.co2   1  UNL1       -0.5492
     31 C          61.8691   85.6769    9.9679 C.2     1  UNL1        0.0503
     32 O          62.9679   85.1465    9.0953 O.co2   1  UNL1       -0.5492
@<TRIPOS>UNITY_ATOM_ATTR
30 1
charge -1
@<TRIPOS>BOND
     1    30    31   ar
     2    31    32   ar
     3    31    29    1
     4    29    28    1
     5    28     1    1
     6     1    18    1
     7    18    19   ar
     8    19    20   ar
     9    20    21   ar
    10    21    22   ar
    11    22    23   ar
    12    23    24    1
    13    24    25    1
    14    24    26    1
    15    24    27    1
    16     1     2    1
    17     2     3    1
    18     3     4    1
    19     4     5    1
    20     5     6   am
    21     6     7    2
    22     6     8   am
    23     8    11    1
    24    11    12   ar
    25    12    13   ar
    26    13    14   ar
    27    14    15    1
    28    14    16   ar
    29    16    17   ar
    30     5     9    1
    31     9     1    1
    32    23    18   ar
    33    17    11   ar
    34     8    10    1
@<TRIPOS>MOLECULE
*****
 32 34 0 0 0
SMALL
GASTEIGER

@<TRIPOS>ATOM
      1 C          63.0755   84.5095   13.3059 C.3     1  UNL1        0.0376
      2 C          62.1249   84.5046   12.1456 C.3     1  UNL1        0.0075
      3 C          61.8652   85.7702   11.3835 C.3     1  UNL1        0.0219
      4 C          62.5562   87.0407   11.7817 C.3     1  UNL1        0.0950
      5 N          63.5068   87.0455   12.9420 N.am    1  UNL1       -0.2637
      6 C          64.1978   88.3160   13.3402 C.2     1  UNL1        0.3077
      7 O          65.1484   88.3208   14.5005 O.2     1  UNL1       -0.2522
      8 N          63.9381   89.5816   12.5781 N.am    1  UNL1       -0.2681
      9 C          63.7665   85.7800   13.7041 C.3     1  UNL1        0.0989
     10 H          63.3141   89.5785   11.8166 H       1  UNL1        0.1564
     11 C          64.6291   90.8520   12.9764 C.ar    1  UNL1        0.0516
     12 C          64.9747   91.0984   14.4151 C.ar    1  UNL1        0.0156
     13 C          65.6657   92.3687   14.8134 C.ar    1  UNL1        0.0127
     14 C          66.0110   93.3927   13.7731 C.ar    1  UNL1        0.0578
     15 CL         66.7021   94.6631   14.1714 Cl      1  UNL1       -0.0822
     16 C          65.6654   93.1463   12.3344 C.ar    1  UNL1        0.0127
     17 C          64.9744   91.8759   11.9361 C.ar    1  UNL1        0.0156
     18 C          62.6653   83.0666   13.3113 C.ar    1  UNL1       -0.0173
     19 C          61.7242   82.5585   14.3630 C.ar    1  UNL1       -0.0043
     20 C          61.3139   81.1157   14.3684 C.ar    1  UNL1       -0.0003
     21 C          61.8448   80.1811   13.3221 C.ar    1  UNL1       -0.0001
     22 C          62.7859   80.6893   12.2704 C.ar    1  UNL1        0.0035
     23 C          63.1961   82.1320   12.2650 C.ar    1  UNL1        0.0675
     24 C          64.1373   82.6403   11.2133 C.3     1  UNL1        0.4183
     25 F          65.0783   83.1485   10.1616 F       1  UNL1       -0.1659
     26 F          65.0000   82.9991   11.7814 F       1  UNL1       -0.1659
     27 F          63.1522   82.2597   10.1480 F       1  UNL1       -0.1659
     28 C          63.8837   84.0132   14.4681 C.3     1  UNL1        0.0116
     29 C          64.2277   84.9428   15.5938 C.3     1  UNL1        0.0421
     30 O          61.9219   84.8423   16.7870 O.co2   1  UNL1       -0.5492
     31 C          63.1355   85.6185   16.3689 C.2     1  UNL1        0.0503
     32 O          63.2570   87.0704   16.7258 O.co2   1  UNL1       -0.5492
@<TRIPOS>UNITY_ATOM_ATTR
30 1
charge -1
@<TRIPOS>BOND
     1    30    31   ar
     2    31    32   ar
     3    31    29    1
     4    29    28    1
     5    28     1    1
     6     1    18    1
     7    18    19   ar
     8    19    20   ar
     9    20    21   ar
    10    21    22   ar
    11    22    23   ar
    12    23    24    1
    13    24    25    1
    14    24    26    1
    15    24    27    1
    16     1     2    1
    17     2     3    1
    18     3     4    1
    19     4     5    1
    20     5     6   am
    21     6     7    2
    22     6     8   am
    23     8    11    1
    24    11    12   ar
    25    12    13   ar
    26    13    14   ar
    27    14    15    1
    28    14    16   ar
    29    16    17   ar
    30     5     9    1
    31     9     1    1
    32    23    18   ar
    33    17    11   ar
    34     8    10    1
@<TRIPOS>MOLECULE
*****
 32 34 0 0 0
SMALL
GASTEIGER

@<TRIPOS>ATOM
      1 C          65.3736   91.4039   13.4295 C.3     1  UNL1        0.0376
      2 C          65.6850   92.6548   12.6627 C.3     1  UNL1        0.0075
      3 C          65.0194   92.9109   11.3430 C.3     1  UNL1        0.0219
      4 C          64.0425   91.9158   10.7902 C.3     1  UNL1        0.0950
      5 N          63.7311   90.6649   11.5571 N.am    1  UNL1       -0.2637
      6 C          62.7542   89.6698   11.0043 C.2     1  UNL1        0.3077
      7 O          62.4429   88.4189   11.7712 O.2     1  UNL1       -0.2522
      8 N          62.0886   89.9258    9.6846 N.am    1  UNL1       -0.2681
      9 C          64.3967   90.4089   12.8767 C.3     1  UNL1        0.0989
     10 H          62.2929   90.7469    9.1813 H       1  UNL1        0.1564
     11 C          61.1117   88.9308    9.1319 C.ar    1  UNL1        0.0516
     12 C          59.9687   89.3962    8.2792 C.ar    1  UNL1        0.0156
     13 C          58.9918   88.4012    7.7264 C.ar    1  UNL1        0.0127
     14 C          59.1578   86.9409    8.0264 C.ar    1  UNL1        0.0578
     15 CL         58.1808   85.9458    7.4736 Cl      1  UNL1       -0.0822
     16 C          60.3007   86.4755    8.8791 C.ar    1  UNL1        0.0127
     17 C          61.2777   87.4706    9.4318 C.ar    1  UNL1        0.0156
     18 C          66.3616   92.0413   14.3610 C.ar    1  UNL1       -0.0173
     19 C          65.9422   92.4298   15.7478 C.ar    1  UNL1       -0.0043
     20 C          66.9302   93.0671   16.6792 C.ar    1  UNL1       -0.0003
     21 C          68.3376   93.3161   16.2239 C.ar    1  UNL1       -0.0001
     22 C          68.7570   92.9276   14.8371 C.ar    1  UNL1        0.0035
     23 C          67.7690   92.2903   13.9057 C.ar    1  UNL1        0.0675
     24 C          68.1884   91.9018   12.5188 C.3     1  UNL1        0.4183
     25 F          68.6077   91.5134   11.1320 F       1  UNL1       -0.1659
     26 F          68.5251   90.8668   12.6244 F       1  UNL1       -0.1659
     27 F          67.8169   93.2681   12.0238 F       1  UNL1       -0.1659
     28 C          65.4054   90.3743   14.5199 C.3     1  UNL1        0.0116
     29 C          64.2304   89.4653   14.7276 C.3     1  UNL1        0.0421
     30 O          63.0629   88.2008   16.6739 O.co2   1  UNL1       -0.5492
     31 C          63.4857   89.4877   16.0295 C.2     1  UNL1        0.0503
     32 O          63.1640   90.7969   16.6870 O.co2   1  UNL1       -0.5492
@<TRIPOS>UNITY_ATOM_ATTR
30 1
charge -1
@<TRIPOS>BOND
     1    30    31   ar
     2    31    32   ar
     3    31    29    1
     4    29    28    1
     5    28     1    1
     6     1    18    1
     7    18    19   ar
     8    19    20   ar
     9    20    21   ar
    10    21    22   ar
    11    22    23   ar
    12    23    24    1
    13    24    25    1
    14    24    26    1
    15    24    27    1
    16     1     2    1
    17     2     3    1
    18     3     4    1
    19     4     5    1
    20     5     6   am
    21     6     7    2
    22     6     8   am
    23     8    11    1
    24    11    12   ar
    25    12    13   ar
    26    13    14   ar
    27    14    15    1
    28    14    16   ar
    29    16    17   ar
    30     5     9    1
    31     9     1    1
    32    23    18   ar
    33    17    11   ar
    34     8    10    1
@<TRIPOS>MOLECULE
*****
 32 34 0 0 0
SMALL
GASTEIGER

@<TRIPOS>ATOM
      1 C          64.4468   89.3465   14.0198 C.3     1  UNL1        0.0376
      2 C          65.2219   89.7626   15.2347 C.3     1  UNL1        0.0075
      3 C          66.0493   91.0134   15.2045 C.3     1  UNL1        0.0219
      4 C          66.1016   91.8480   13.9592 C.3     1  UNL1        0.0950
      5 N          65.3265   91.4319   12.7443 N.am    1  UNL1       -0.2637
      6 C          65.3788   92.2666   11.4990 C.2     1  UNL1        0.3077
      7 O          64.6037   91.8505   10.2842 O.2     1  UNL1       -0.2522
      8 N          66.2062   93.5174   11.4688 N.am    1  UNL1       -0.2681
      9 C          64.4991   90.1812   12.7746 C.3     1  UNL1        0.0989
     10 H          66.7150   93.7906   12.2662 H       1  UNL1        0.1564
     11 C          66.2585   94.3520   10.2235 C.ar    1  UNL1        0.0516
     12 C          67.2267   94.0084    9.1305 C.ar    1  UNL1        0.0156
     13 C          67.2790   94.8429    7.8853 C.ar    1  UNL1        0.0127
     14 C          66.3632   96.0211    7.7329 C.ar    1  UNL1        0.0578
     15 CL         66.4155   96.8557    6.4876 Cl      1  UNL1       -0.0822
     16 C          65.3950   96.3648    8.8259 C.ar    1  UNL1        0.0127
     17 C          65.3427   95.5302   10.0713 C.ar    1  UNL1        0.0156
     18 C          64.0812   88.2329   14.9560 C.ar    1  UNL1       -0.0173
     19 C          64.4404   86.8173   14.6142 C.ar    1  UNL1       -0.0043
     20 C          64.0748   85.7038   15.5504 C.ar    1  UNL1       -0.0003
     21 C          63.3500   86.0060   16.8284 C.ar    1  UNL1       -0.0001
     22 C          62.9908   87.4217   17.1703 C.ar    1  UNL1        0.0035
     23 C          63.3564   88.5351   16.2341 C.ar    1  UNL1        0.0675
     24 C          62.9973   89.9509   16.5759 C.3     1  UNL1        0.4183
     25 F          62.6381   91.3665   16.9177 F       1  UNL1       -0.1659
     26 F          63.5923   90.1668   17.4676 F       1  UNL1       -0.1659
     27 F          62.0666   89.9985   15.4005 F       1  UNL1       -0.1659
     28 C          63.5448   88.5436   13.1300 C.3     1  UNL1        0.0116
     29 C          62.6803   89.2353   12.1180 C.3     1  UNL1        0.0421
     30 O          60.7508   87.5761   11.5944 O.co2   1  UNL1       -0.5492
     31 C          61.8930   88.4291   11.1278 C.2     1  UNL1        0.0503
     32 O          62.2481   88.4760    9.6712 O.co2   1  UNL1       -0.5492
@<TRIPOS>UNITY_ATOM_ATTR
30 1
charge -1
@<TRIPOS>BOND
     1    30    31   ar
     2    31    32   ar
     3    31    29    1
     4    29    28    1
     5    28     1    1
     6     1    18    1
     7    18    19   ar
     8    19    20   ar
     9    20    21   ar
    10    21    22   ar
    11    22    23   ar
    12    23    24    1
    13    24    25    1
    14    24    26    1
    15    24    27    1
    16     1     2    1
    17     2     3    1
    18     3     4    1
    19     4     5    1
    20     5     6   am
    21     6     7    2
    22     6     8   am
    23     8    11    1
    24    11    12   ar
    25    12    13   ar
    26    13    14   ar
    27    14    15    1
    28    14    16   ar
    29    16    17   ar
    30     5     9    1
    31     9     1    1
    32    23    18   ar
    33    17    11   ar
    34     8    10    1
@<TRIPOS>MOLECULE
*****
 32 34 0 0 0
SMALL
GASTEIGER

@<TRIPOS>ATOM
      1 C          61.0494   94.7441   -0.4226 C.3     1  UNL1        0.0376
      2 C          61.2322   95.8122    0.6146 C.3     1  UNL1        0.0075
      3 C          60.1251   96.7855    0.8920 C.3     1  UNL1        0.0219
      4 C          58.8352   96.6907    0.1323 C.3     1  UNL1        0.0950
      5 N          58.6524   95.6227   -0.9049 N.am    1  UNL1       -0.2637
      6 C          57.3625   95.5279   -1.6647 C.2     1  UNL1        0.3077
      7 O          57.1798   94.4598   -2.7019 O.2     1  UNL1       -0.2522
      8 N          56.2554   96.5012   -1.3872 N.am    1  UNL1       -0.2681
      9 C          59.7595   94.6494   -1.1824 C.3     1  UNL1        0.0989
     10 H          56.3753   97.2022   -0.7064 H       1  UNL1        0.1564
     11 C          54.9656   96.4063   -2.1470 C.ar    1  UNL1        0.0516
     12 C          53.7387   95.8624   -1.4769 C.ar    1  UNL1        0.0156
     13 C          52.4489   95.7675   -2.2365 C.ar    1  UNL1        0.0127
     14 C          52.3858   96.2166   -3.6664 C.ar    1  UNL1        0.0578
     15 CL         51.0959   96.1217   -4.4262 Cl      1  UNL1       -0.0822
     16 C          53.6126   96.7605   -4.3365 C.ar    1  UNL1        0.0127
     17 C          54.9025   96.8554   -3.5768 C.ar    1  UNL1        0.0156
     18 C          62.4441   94.4301    0.0317 C.ar    1  UNL1       -0.0173
     19 C          63.6174   95.0611   -0.6576 C.ar    1  UNL1       -0.0043
     20 C          65.0120   94.7470   -0.2032 C.ar    1  UNL1       -0.0003
     21 C          65.2332   93.8019    0.9404 C.ar    1  UNL1       -0.0001
     22 C          64.0599   93.1709    1.6296 C.ar    1  UNL1        0.0035
     23 C          62.6654   93.4849    1.1753 C.ar    1  UNL1        0.0675
     24 C          61.4920   92.8539    1.8645 C.3     1  UNL1        0.4183
     25 F          60.3186   92.2228    2.5537 F       1  UNL1       -0.1659
     26 F          61.1920   93.5962    2.6093 F       1  UNL1       -0.1659
     27 F          61.6235   91.6471    0.9834 F       1  UNL1       -0.1659
     28 C          61.3510   93.5670   -1.3021 C.3     1  UNL1        0.0116
     29 C          61.1326   93.6618   -2.7830 C.3     1  UNL1        0.0421
     30 O          62.2626   94.1904   -5.0620 O.co2   1  UNL1       -0.5492
     31 C          62.2922   93.5148   -3.7231 C.2     1  UNL1        0.0503
     32 O          63.4814   92.6922   -3.3242 O.co2   1  UNL1       -0.5492
@<TRIPOS>UNITY_ATOM_ATTR
30 1
charge -1
@<TRIPOS>BOND
     1    30    31   ar
     2    31    32   ar
     3    31    29    1
     4    29    28    1
     5    28     1    1
     6     1    18    1
     7    18    19   ar
     8    19    20   ar
     9    20    21   ar
    10    21    22   ar
    11    22    23   ar
    12    23    24    1
    13    24    25    1
    14    24    26    1
    15    24    27    1
    16     1     2    1
    17     2     3    1
    18     3     4    1
    19     4     5    1
    20     5     6   am
    21     6     7    2
    22     6     8   am
    23     8    11    1
    24    11    12   ar
    25    12    13   ar
    26    13    14   ar
    27    14    15    1
    28    14    16   ar
    29    16    17   ar
    30     5     9    1
    31     9     1    1
    32    23    18   ar
    33    17    11   ar
    34     8    10    1
@<TRIPOS>MOLECULE
*****
 32 34 0 0 0
SMALL
GASTEIGER

@<TRIPOS>ATOM
      1 C          61.1284   94.7863   -0.4328 C.3     1  UNL1        0.0376
      2 C          61.8880   95.8900   -1.1069 C.3     1  UNL1        0.0075
      3 C          61.1706   96.8558   -2.0028 C.3     1  UNL1        0.0219
      4 C          59.6935   96.7178   -2.2245 C.3     1  UNL1        0.0950
      5 N          58.9338   95.6140   -1.5504 N.am    1  UNL1       -0.2637
      6 C          57.4567   95.4760   -1.7721 C.2     1  UNL1        0.3077
      7 O          56.6971   94.3721   -1.0979 O.2     1  UNL1       -0.2522
      8 N          56.7393   96.4417   -2.6680 N.am    1  UNL1       -0.2681
      9 C          59.6512   94.6482   -0.6545 C.3     1  UNL1        0.0989
     10 H          57.2379   97.1662   -3.1104 H       1  UNL1        0.1564
     11 C          55.2623   96.3036   -2.8896 C.ar    1  UNL1        0.0516
     12 C          54.7141   96.2611   -4.2853 C.ar    1  UNL1        0.0156
     13 C          53.2371   96.1230   -4.5070 C.ar    1  UNL1        0.0127
     14 C          52.3081   96.0274   -3.3332 C.ar    1  UNL1        0.0578
     15 CL         50.8310   95.8893   -3.5549 Cl      1  UNL1       -0.0822
     16 C          52.8562   96.0699   -1.9376 C.ar    1  UNL1        0.0127
     17 C          54.3334   96.2081   -1.7158 C.ar    1  UNL1        0.0156
     18 C          62.5081   94.5073    0.0856 C.ar    1  UNL1       -0.0173
     19 C          62.8931   94.9463    1.4672 C.ar    1  UNL1       -0.0043
     20 C          64.2728   94.6673    1.9856 C.ar    1  UNL1       -0.0003
     21 C          65.2673   93.9493    1.1223 C.ar    1  UNL1       -0.0001
     22 C          64.8822   93.5102   -0.2593 C.ar    1  UNL1        0.0035
     23 C          63.5026   93.7892   -0.7776 C.ar    1  UNL1        0.0675
     24 C          63.1175   93.3501   -2.1593 C.3     1  UNL1        0.4183
     25 F          62.7324   92.9111   -3.5409 F       1  UNL1       -0.1659
     26 F          62.3469   92.5927   -1.9910 F       1  UNL1       -0.1659
     27 F          64.1109   94.3113   -2.7416 F       1  UNL1       -0.1659
     28 C          60.8478   93.5855    0.4214 C.3     1  UNL1        0.0116
     29 C          59.8879   93.6895    1.5693 C.3     1  UNL1        0.0421
     30 O          61.4741   92.3582    3.1383 O.co2   1  UNL1       -0.5492
     31 C          60.1023   92.8641    2.8034 C.2     1  UNL1        0.0503
     32 O          58.9449   92.5447    3.7024 O.co2   1  UNL1       -0.5492
@<TRIPOS>UNITY_ATOM_ATTR
30 1
charge -1
@<TRIPOS>BOND
     1    30    31   ar
     2    31    32   ar
     3    31    29    1
     4    29    28    1
     5    28     1    1
     6     1    18    1
     7    18    19   ar
     8    19    20   ar
     9    20    21   ar
    10    21    22   ar
    11    22    23   ar
    12    23    24    1
    13    24    25    1
    14    24    26    1
    15    24    27    1
    16     1     2    1
    17     2     3    1
    18     3     4    1
    19     4     5    1
    20     5     6   am
    21     6     7    2
    22     6     8   am
    23     8    11    1
    24    11    12   ar
    25    12    13   ar
    26    13    14   ar
    27    14    15    1
    28    14    16   ar
    29    16    17   ar
    30     5     9    1
    31     9     1    1
    32    23    18   ar
    33    17    11   ar
    34     8    10    1
@<TRIPOS>MOLECULE
*****
 32 34 0 0 0
SMALL
GASTEIGER

@<TRIPOS>ATOM
      1 C          62.2762   88.8752   10.7412 C.3     1  UNL1        0.0376
      2 C          62.0489   89.8569    9.6301 C.3     1  UNL1        0.0075
      3 C          62.8088   91.1499    9.6046 C.3     1  UNL1        0.0219
      4 C          63.7960   91.4612   10.6903 C.3     1  UNL1        0.0950
      5 N          64.0233   90.4796   11.8013 N.am    1  UNL1       -0.2637
      6 C          65.0105   90.7909   12.8870 C.2     1  UNL1        0.3077
      7 O          65.2377   89.8091   13.9981 O.2     1  UNL1       -0.2522
      8 N          65.7704   92.0839   12.8615 N.am    1  UNL1       -0.2681
      9 C          63.2634   89.1865   11.8269 C.3     1  UNL1        0.0989
     10 H          65.6213   92.7282   12.1322 H       1  UNL1        0.1564
     11 C          66.7576   92.3951   13.9471 C.ar    1  UNL1        0.0516
     12 C          68.2285   92.2662   13.6827 C.ar    1  UNL1        0.0156
     13 C          69.2157   92.5774   14.7682 C.ar    1  UNL1        0.0127
     14 C          68.7321   93.0175   16.1182 C.ar    1  UNL1        0.0578
     15 CL         69.7193   93.3287   17.2039 Cl      1  UNL1       -0.0822
     16 C          67.2612   93.1464   16.3826 C.ar    1  UNL1        0.0127
     17 C          66.2739   92.8351   15.2970 C.ar    1  UNL1        0.0156
     18 C          61.2433   88.1335    9.9455 C.ar    1  UNL1       -0.0173
     19 C          61.6591   87.0223    9.0277 C.ar    1  UNL1       -0.0043
     20 C          60.6263   86.2806    8.2321 C.ar    1  UNL1       -0.0003
     21 C          59.1776   86.6501    8.3543 C.ar    1  UNL1       -0.0001
     22 C          58.7618   87.7613    9.2721 C.ar    1  UNL1        0.0035
     23 C          59.7947   88.5029   10.0677 C.ar    1  UNL1        0.0675
     24 C          59.3789   89.6142   10.9856 C.3     1  UNL1        0.4183
     25 F          58.9631   90.7253   11.9034 F       1  UNL1       -0.1659
     26 F          59.4576   90.5121   10.3665 F       1  UNL1       -0.1659
     27 F          59.1640   88.6218   12.0896 F       1  UNL1       -0.1659
     28 C          62.1448   87.6359   11.5761 C.3     1  UNL1        0.0116
     29 C          63.2648   87.2203   12.4831 C.3     1  UNL1        0.0421
     30 O          63.1822   84.6546   12.0830 O.co2   1  UNL1       -0.5492
     31 C          63.3165   85.8198   13.0179 C.2     1  UNL1        0.0503
     32 O          63.5024   85.5848   14.4877 O.co2   1  UNL1       -0.5492
@<TRIPOS>UNITY_ATOM_ATTR
30 1
charge -1
@<TRIPOS>BOND
     1    30    31   ar
     2    31    32   ar
     3    31    29    1
     4    29    28    1
     5    28     1    1
     6     1    18    1
     7    18    19   ar
     8    19    20   ar
     9    20    21   ar
    10    21    22   ar
    11    22    23   ar
    12    23    24    1
    13    24    25    1
    14    24    26    1
    15    24    27    1
    16     1     2    1
    17     2     3    1
    18     3     4    1
    19     4     5    1
    20     5     6   am
    21     6     7    2
    22     6     8   am
    23     8    11    1
    24    11    12   ar
    25    12    13   ar
    26    13    14   ar
    27    14    15    1
    28    14    16   ar
    29    16    17   ar
    30     5     9    1
    31     9     1    1
    32    23    18   ar
    33    17    11   ar
    34     8    10    1
@<TRIPOS>MOLECULE
*****
 32 34 0 0 0
SMALL
GASTEIGER

@<TRIPOS>ATOM
      1 C          62.1204   94.6844    0.1733 C.3     1  UNL1        0.0376
      2 C          61.3139   94.9067    1.4183 C.3     1  UNL1        0.0075
      3 C          59.8261   94.7179    1.3918 C.3     1  UNL1        0.0219
      4 C          59.1448   94.3068    0.1202 C.3     1  UNL1        0.0950
      5 N          59.9513   94.0845   -1.1248 N.am    1  UNL1       -0.2637
      6 C          59.2699   93.6735   -2.3964 C.2     1  UNL1        0.3077
      7 O          60.0765   93.4512   -3.6414 O.2     1  UNL1       -0.2522
      8 N          57.7821   93.4847   -2.4229 N.am    1  UNL1       -0.2681
      9 C          61.4391   94.2733   -1.0983 C.3     1  UNL1        0.0989
     10 H          57.2527   93.6306   -1.6058 H       1  UNL1        0.1564
     11 C          57.1009   93.0736   -3.6945 C.ar    1  UNL1        0.0516
     12 C          56.9705   94.0508   -4.8252 C.ar    1  UNL1        0.0156
     13 C          56.2893   93.6398   -6.0967 C.ar    1  UNL1        0.0127
     14 C          55.7385   92.2517   -6.2377 C.ar    1  UNL1        0.0578
     15 CL         55.0572   91.8407   -7.5094 Cl      1  UNL1       -0.0822
     16 C          55.8689   91.2746   -5.1071 C.ar    1  UNL1        0.0127
     17 C          56.5501   91.6856   -3.8355 C.ar    1  UNL1        0.0156
     18 C          63.2138   95.0640    1.1275 C.ar    1  UNL1       -0.0173
     19 C          63.7250   96.4738    1.1598 C.ar    1  UNL1       -0.0043
     20 C          64.8183   96.8534    2.1140 C.ar    1  UNL1       -0.0003
     21 C          65.4003   95.8232    3.0360 C.ar    1  UNL1       -0.0001
     22 C          64.8890   94.4135    3.0037 C.ar    1  UNL1        0.0035
     23 C          63.7958   94.0339    2.0495 C.ar    1  UNL1        0.0675
     24 C          63.2844   92.6240    2.0171 C.3     1  UNL1        0.4183
     25 F          62.7732   91.2142    1.9848 F       1  UNL1       -0.1659
     26 F          62.4341   92.6352    2.7046 F       1  UNL1       -0.1659
     27 F          64.3591   92.2568    1.0373 F       1  UNL1       -0.1659
     28 C          63.3067   94.5939   -0.7404 C.3     1  UNL1        0.0116
     29 C          63.1770   93.9182   -2.0732 C.3     1  UNL1        0.0421
     30 O          64.8180   95.5405   -3.2671 O.co2   1  UNL1       -0.5492
     31 C          64.1857   94.1853   -3.1508 C.2     1  UNL1        0.0503
     32 O          64.5621   93.0970   -4.1121 O.co2   1  UNL1       -0.5492
@<TRIPOS>UNITY_ATOM_ATTR
30 1
charge -1
@<TRIPOS>BOND
     1    30    31   ar
     2    31    32   ar
     3    31    29    1
     4    29    28    1
     5    28     1    1
     6     1    18    1
     7    18    19   ar
     8    19    20   ar
     9    20    21   ar
    10    21    22   ar
    11    22    23   ar
    12    23    24    1
    13    24    25    1
    14    24    26    1
    15    24    27    1
    16     1     2    1
    17     2     3    1
    18     3     4    1
    19     4     5    1
    20     5     6   am
    21     6     7    2
    22     6     8   am
    23     8    11    1
    24    11    12   ar
    25    12    13   ar
    26    13    14   ar
    27    14    15    1
    28    14    16   ar
    29    16    17   ar
    30     5     9    1
    31     9     1    1
    32    23    18   ar
    33    17    11   ar
    34     8    10    1
