@<TRIPOS>MOLECULE
*****
 31 34 0 0 0
SMALL
GASTEIGER

@<TRIPOS>ATOM
      1 C          62.3811   88.3717   11.4140 C.ar    1  UNL1        0.0284
      2 C          63.1833   88.0402   12.6373 C.ar    1  UNL1        0.0027
      3 C          63.9640   89.1136   13.3359 C.ar    1  UNL1        0.0339
      4 C          63.9425   90.5187   12.8112 C.ar    1  UNL1        0.1311
      5 N          63.1402   90.8502   11.5879 N.ar    1  UNL1       -0.2035
      6 C          62.3595   89.7767   10.8893 C.ar    1  UNL1        0.2196
      7 F          61.5573   90.1083    9.6660 F       1  UNL1       -0.1835
      8 N          64.7233   91.5922   13.5099 N.pl3   1  UNL1       -0.3144
      9 H          64.2961   92.1333   14.2127 H       1  UNL1        0.1485
     10 C          66.1548   91.8412   13.1377 C.3     1  UNL1        0.1169
     11 C          66.4874   92.8135   12.0449 C.ar    1  UNL1        0.0166
     12 C          67.0376   92.3168   10.7409 C.ar    1  UNL1        0.0004
     13 C          67.3702   93.2890    9.6481 C.ar    1  UNL1        0.0228
     14 C          67.1526   94.7580    9.8594 C.ar    1  UNL1        0.1526
     15 N          66.6023   95.2547   11.1635 N.ar    1  UNL1       -0.2401
     16 C          66.2698   94.2825   12.2561 C.ar    1  UNL1        0.0961
     17 C          67.4851   95.7303    8.7666 C.3     1  UNL1        0.4348
     18 F          67.8177   96.7025    7.6738 F       1  UNL1       -0.1644
     19 F          67.5181   94.6049    7.7754 F       1  UNL1       -0.1644
     20 F          67.4522   96.8556    9.7579 F       1  UNL1       -0.1644
     21 C          61.6004   87.2982   10.7154 C.3     1  UNL1        0.0603
     22 C          63.1999   82.8390   14.2295 C.3     1  UNL1        0.0307
     23 C          63.2807   83.2207   12.7811 C.2     1  UNL1        0.0074
     24 C          63.9365   82.2974   11.7976 C.2     1  UNL1        0.2278
     25 N          64.0172   82.6791   10.3492 N.2     1  UNL1       -0.0314
     26 C          63.4422   83.9842    9.8844 C.2     1  UNL1        0.3716
     27 N          63.3734   84.6251    8.5299 N.2     1  UNL1       -0.0311
     28 C          62.6751   85.9445    8.6764 C.2     1  UNL1        0.2319
     29 C          62.3123   86.1191   10.1213 C.2     1  UNL1        0.0328
     30 C          62.7864   84.9075   10.8679 C.2     1  UNL1        0.0704
     31 C          62.7056   84.5257   12.3163 C.3     1  UNL1        0.0598
@<TRIPOS>BOND
     1    22    23    1
     2    23    24    2
     3    24    25    1
     4    25    26    2
     5    26    27    1
     6    27    28    2
     7    28    29    1
     8    29    21    1
     9    21     1    1
    10     1     2   ar
    11     2     3   ar
    12     3     4   ar
    13     4     8    1
    14     8    10    1
    15    10    11    1
    16    11    12   ar
    17    12    13   ar
    18    13    14   ar
    19    14    17    1
    20    17    18    1
    21    17    19    1
    22    17    20    1
    23    14    15   ar
    24    15    16   ar
    25     4     5   ar
    26     5     6   ar
    27     6     7    1
    28    29    30    2
    29    30    31    1
    30    31    23    1
    31    30    26    1
    32     6     1   ar
    33    16    11   ar
    34     8     9    1
@<TRIPOS>MOLECULE
*****
 31 34 0 0 0
SMALL
GASTEIGER

@<TRIPOS>ATOM
      1 C          62.9478   84.7794    9.7849 C.ar    1  UNL1        0.0284
      2 C          63.9216   83.6638    9.5459 C.ar    1  UNL1        0.0027
      3 C          64.1026   82.5918   10.5793 C.ar    1  UNL1        0.0339
      4 C          63.3097   82.6353   11.8519 C.ar    1  UNL1        0.1311
      5 N          62.3358   83.7509   12.0909 N.ar    1  UNL1       -0.2035
      6 C          62.1548   84.8229   11.0575 C.ar    1  UNL1        0.2196
      7 F          61.1810   85.9384   11.2967 F       1  UNL1       -0.1835
      8 N          63.4907   81.5633   12.8853 N.pl3   1  UNL1       -0.3144
      9 H          63.2475   80.6324   12.6767 H       1  UNL1        0.1485
     10 C          64.0423   81.9096   14.2365 C.3     1  UNL1        0.1169
     11 C          63.9023   83.3051   14.7685 C.ar    1  UNL1        0.0166
     12 C          64.9541   84.3314   14.4680 C.ar    1  UNL1        0.0004
     13 C          64.8141   85.7269   15.0000 C.ar    1  UNL1        0.0228
     14 C          63.6223   86.0961   15.8326 C.ar    1  UNL1        0.1526
     15 N          62.5704   85.0697   16.1332 N.ar    1  UNL1       -0.2401
     16 C          62.7105   83.6743   15.6012 C.ar    1  UNL1        0.0961
     17 C          63.4823   87.4916   16.3646 C.3     1  UNL1        0.4348
     18 F          63.3424   88.8870   16.8966 F       1  UNL1       -0.1644
     19 F          64.2117   88.0217   15.1659 F       1  UNL1       -0.1644
     20 F          62.7529   86.9613   17.5633 F       1  UNL1       -0.1644
     21 C          62.7668   85.8514    8.7515 C.3     1  UNL1        0.0603
     22 C          63.3587   90.8541   11.8198 C.3     1  UNL1        0.0307
     23 C          62.3136   90.1391   11.0157 C.2     1  UNL1        0.0074
     24 C          60.9534   90.7474   10.8436 C.2     1  UNL1        0.2278
     25 N          59.9083   90.0324   10.0395 N.2     1  UNL1       -0.0314
     26 C          60.2234   88.7091    9.4075 C.2     1  UNL1        0.3716
     27 N          59.4023   87.7779    8.5657 N.2     1  UNL1       -0.0311
     28 C          60.2551   86.5940    8.2175 C.2     1  UNL1        0.2319
     29 C          61.6033   86.7936    8.8441 C.2     1  UNL1        0.0328
     30 C          61.5837   88.1008    9.5795 C.2     1  UNL1        0.0704
     31 C          62.6288   88.8158   10.3836 C.3     1  UNL1        0.0598
@<TRIPOS>BOND
     1    22    23    1
     2    23    24    2
     3    24    25    1
     4    25    26    2
     5    26    27    1
     6    27    28    2
     7    28    29    1
     8    29    21    1
     9    21     1    1
    10     1     2   ar
    11     2     3   ar
    12     3     4   ar
    13     4     8    1
    14     8    10    1
    15    10    11    1
    16    11    12   ar
    17    12    13   ar
    18    13    14   ar
    19    14    17    1
    20    17    18    1
    21    17    19    1
    22    17    20    1
    23    14    15   ar
    24    15    16   ar
    25     4     5   ar
    26     5     6   ar
    27     6     7    1
    28    29    30    2
    29    30    31    1
    30    31    23    1
    31    30    26    1
    32     6     1   ar
    33    16    11   ar
    34     8     9    1
@<TRIPOS>MOLECULE
*****
 31 34 0 0 0
SMALL
GASTEIGER

@<TRIPOS>ATOM
      1 C          62.6682   85.0018    9.7860 C.ar    1  UNL1        0.0284
      2 C          61.9127   85.5490   10.9607 C.ar    1  UNL1        0.0027
      3 C          60.9493   86.6829   10.7707 C.ar    1  UNL1        0.0339
      4 C          60.7412   87.2696    9.4060 C.ar    1  UNL1        0.1311
      5 N          61.4967   86.7224    8.2312 N.ar    1  UNL1       -0.2035
      6 C          62.4602   85.5885    8.4212 C.ar    1  UNL1        0.2196
      7 F          63.2155   85.0414    7.2465 F       1  UNL1       -0.1835
      8 N          59.7778   88.4035    9.2160 N.pl3   1  UNL1       -0.3144
      9 H          58.8781   88.2299    8.8559 H       1  UNL1        0.1485
     10 C          60.1852   89.8019    9.5746 C.3     1  UNL1        0.1169
     11 C          61.2887   90.0311   10.5643 C.ar    1  UNL1        0.0166
     12 C          62.5865   90.6338   10.1145 C.ar    1  UNL1        0.0004
     13 C          63.6900   90.8630   11.1043 C.ar    1  UNL1        0.0228
     14 C          63.4958   90.4894   12.5440 C.ar    1  UNL1        0.1526
     15 N          62.1979   89.8866   12.9938 N.ar    1  UNL1       -0.2401
     16 C          61.0945   89.6575   12.0040 C.ar    1  UNL1        0.0961
     17 C          64.5993   90.7186   13.5337 C.3     1  UNL1        0.4348
     18 F          65.7029   90.9478   14.5235 F       1  UNL1       -0.1644
     19 F          64.4693   89.3012   14.0070 F       1  UNL1       -0.1644
     20 F          64.7294   92.1361   13.0604 F       1  UNL1       -0.1644
     21 C          63.6316   83.8680    9.9760 C.3     1  UNL1        0.0603
     22 C          64.4920   86.1402   15.3508 C.3     1  UNL1        0.0307
     23 C          64.1562   84.8198   14.7231 C.2     1  UNL1        0.0074
     24 C          63.9435   83.6116   15.5861 C.2     1  UNL1        0.2278
     25 N          63.6077   82.2913   14.9584 N.2     1  UNL1       -0.0314
     26 C          63.4847   82.1792   13.4677 C.2     1  UNL1        0.3716
     27 N          63.1670   81.0194   12.5712 N.2     1  UNL1       -0.0311
     28 C          63.1834   81.5108   11.1540 C.2     1  UNL1        0.2319
     29 C          63.5112   82.9744   11.1747 C.2     1  UNL1        0.0328
     30 C          63.6974   83.3875   12.6047 C.2     1  UNL1        0.0704
     31 C          64.0331   84.7078   13.2324 C.3     1  UNL1        0.0598
@<TRIPOS>BOND
     1    22    23    1
     2    23    24    2
     3    24    25    1
     4    25    26    2
     5    26    27    1
     6    27    28    2
     7    28    29    1
     8    29    21    1
     9    21     1    1
    10     1     2   ar
    11     2     3   ar
    12     3     4   ar
    13     4     8    1
    14     8    10    1
    15    10    11    1
    16    11    12   ar
    17    12    13   ar
    18    13    14   ar
    19    14    17    1
    20    17    18    1
    21    17    19    1
    22    17    20    1
    23    14    15   ar
    24    15    16   ar
    25     4     5   ar
    26     5     6   ar
    27     6     7    1
    28    29    30    2
    29    30    31    1
    30    31    23    1
    31    30    26    1
    32     6     1   ar
    33    16    11   ar
    34     8     9    1
@<TRIPOS>MOLECULE
*****
 31 34 0 0 0
SMALL
GASTEIGER

@<TRIPOS>ATOM
      1 C          63.7111   88.0781   15.7496 C.ar    1  UNL1        0.0284
      2 C          64.5846   87.5751   14.6389 C.ar    1  UNL1        0.0027
      3 C          64.8590   86.1063   14.5070 C.ar    1  UNL1        0.0339
      4 C          64.2599   85.1405   15.4860 C.ar    1  UNL1        0.1311
      5 N          63.3864   85.6437   16.5968 N.ar    1  UNL1       -0.2035
      6 C          63.1120   87.1124   16.7287 C.ar    1  UNL1        0.2196
      7 F          62.2385   87.6154   17.8395 F       1  UNL1       -0.1835
      8 N          64.5343   83.6717   15.3541 N.pl3   1  UNL1       -0.3144
      9 H          65.1484   83.2273   15.9824 H       1  UNL1        0.1485
     10 C          63.8731   82.8801   14.2651 C.3     1  UNL1        0.1169
     11 C          63.4594   83.5563   12.9917 C.ar    1  UNL1        0.0166
     12 C          64.1341   83.2008   11.7001 C.ar    1  UNL1        0.0004
     13 C          63.7204   83.8770   10.4268 C.ar    1  UNL1        0.0228
     14 C          62.6319   84.9089   10.4449 C.ar    1  UNL1        0.1526
     15 N          61.9571   85.2644   11.7366 N.ar    1  UNL1       -0.2401
     16 C          62.3708   84.5882   13.0099 C.ar    1  UNL1        0.0961
     17 C          62.2181   85.5851    9.1715 C.3     1  UNL1        0.4348
     18 F          61.8044   86.2614    7.8982 F       1  UNL1       -0.1644
     19 F          63.5388   85.2312    8.5545 F       1  UNL1       -0.1644
     20 F          60.8975   85.9390    9.7886 F       1  UNL1       -0.1644
     21 C          63.4367   89.5469   15.8815 C.3     1  UNL1        0.0603
     22 C          61.8822   89.4439   10.1925 C.3     1  UNL1        0.0307
     23 C          62.8056   90.2042   11.0976 C.2     1  UNL1        0.0074
     24 C          63.6623   91.3035   10.5430 C.2     1  UNL1        0.2278
     25 N          64.5857   92.0639   11.4480 N.2     1  UNL1       -0.0314
     26 C          64.6525   91.7249   12.9077 C.2     1  UNL1        0.3716
     27 N          65.4609   92.2960   14.0347 N.2     1  UNL1       -0.0311
     28 C          65.1039   91.5496   15.2859 C.2     1  UNL1        0.2319
     29 C          64.0748   90.5173   14.9322 C.2     1  UNL1        0.0328
     30 C          63.7959   90.6256   13.4623 C.2     1  UNL1        0.0704
     31 C          62.8724   89.8653   12.5572 C.3     1  UNL1        0.0598
@<TRIPOS>BOND
     1    22    23    1
     2    23    24    2
     3    24    25    1
     4    25    26    2
     5    26    27    1
     6    27    28    2
     7    28    29    1
     8    29    21    1
     9    21     1    1
    10     1     2   ar
    11     2     3   ar
    12     3     4   ar
    13     4     8    1
    14     8    10    1
    15    10    11    1
    16    11    12   ar
    17    12    13   ar
    18    13    14   ar
    19    14    17    1
    20    17    18    1
    21    17    19    1
    22    17    20    1
    23    14    15   ar
    24    15    16   ar
    25     4     5   ar
    26     5     6   ar
    27     6     7    1
    28    29    30    2
    29    30    31    1
    30    31    23    1
    31    30    26    1
    32     6     1   ar
    33    16    11   ar
    34     8     9    1
@<TRIPOS>MOLECULE
*****
 31 34 0 0 0
SMALL
GASTEIGER

@<TRIPOS>ATOM
      1 C          63.6012   86.4942   15.7957 C.ar    1  UNL1        0.0284
      2 C          64.2206   87.1437   14.5939 C.ar    1  UNL1        0.0027
      3 C          64.2816   88.6394   14.4975 C.ar    1  UNL1        0.0339
      4 C          63.7232   89.4856   15.6030 C.ar    1  UNL1        0.1311
      5 N          63.1038   88.8360   16.8049 N.ar    1  UNL1       -0.2035
      6 C          63.0427   87.3403   16.9012 C.ar    1  UNL1        0.2196
      7 F          62.4233   86.6909   18.1031 F       1  UNL1       -0.1835
      8 N          63.7842   90.9812   15.5067 N.pl3   1  UNL1       -0.3144
      9 H          62.9540   91.5099   15.5248 H       1  UNL1        0.1485
     10 C          65.1103   91.6713   15.3827 C.3     1  UNL1        0.1169
     11 C          65.6901   91.9438   14.0264 C.ar    1  UNL1        0.0166
     12 C          64.7923   92.0111   12.8267 C.ar    1  UNL1        0.0004
     13 C          65.3721   92.2836   11.4704 C.ar    1  UNL1        0.0228
     14 C          66.8498   92.4887   11.3138 C.ar    1  UNL1        0.1526
     15 N          67.7476   92.4214   12.5136 N.ar    1  UNL1       -0.2401
     16 C          67.1677   92.1489   13.8698 C.ar    1  UNL1        0.0961
     17 C          67.4296   92.7612    9.9575 C.3     1  UNL1        0.4348
     18 F          68.0094   93.0337    8.6012 F       1  UNL1       -0.1644
     19 F          68.4192   91.6519   10.1577 F       1  UNL1       -0.1644
     20 F          66.4398   93.8705    9.7573 F       1  UNL1       -0.1644
     21 C          63.5402   84.9985   15.8920 C.3     1  UNL1        0.0603
     22 C          60.1500   80.4584   14.2533 C.3     1  UNL1        0.0307
     23 C          61.4344   81.1152   13.8422 C.2     1  UNL1        0.0074
     24 C          62.2148   80.5751   12.6807 C.2     1  UNL1        0.2278
     25 N          63.4991   81.2319   12.2696 N.2     1  UNL1       -0.0314
     26 C          64.0030   82.4290   13.0200 C.2     1  UNL1        0.3716
     27 N          65.2261   83.2800   12.8474 N.2     1  UNL1       -0.0311
     28 C          65.2016   84.3462   13.9023 C.2     1  UNL1        0.2319
     29 C          63.9634   84.1541   14.7268 C.2     1  UNL1        0.0328
     30 C          63.2226   82.9691   14.1815 C.2     1  UNL1        0.0704
     31 C          61.9383   82.3122   14.5926 C.3     1  UNL1        0.0598
@<TRIPOS>BOND
     1    22    23    1
     2    23    24    2
     3    24    25    1
     4    25    26    2
     5    26    27    1
     6    27    28    2
     7    28    29    1
     8    29    21    1
     9    21     1    1
    10     1     2   ar
    11     2     3   ar
    12     3     4   ar
    13     4     8    1
    14     8    10    1
    15    10    11    1
    16    11    12   ar
    17    12    13   ar
    18    13    14   ar
    19    14    17    1
    20    17    18    1
    21    17    19    1
    22    17    20    1
    23    14    15   ar
    24    15    16   ar
    25     4     5   ar
    26     5     6   ar
    27     6     7    1
    28    29    30    2
    29    30    31    1
    30    31    23    1
    31    30    26    1
    32     6     1   ar
    33    16    11   ar
    34     8     9    1
@<TRIPOS>MOLECULE
*****
 31 34 0 0 0
SMALL
GASTEIGER

@<TRIPOS>ATOM
      1 C          64.1330   89.3124   15.1550 C.ar    1  UNL1        0.0284
      2 C          64.6611   88.2165   14.2774 C.ar    1  UNL1        0.0027
      3 C          64.4004   86.7820   14.6298 C.ar    1  UNL1        0.0339
      4 C          63.6115   86.4433   15.8598 C.ar    1  UNL1        0.1311
      5 N          63.0833   87.5392   16.7374 N.ar    1  UNL1       -0.2035
      6 C          63.3441   88.9737   16.3851 C.ar    1  UNL1        0.2196
      7 F          62.8159   90.0695   17.2627 F       1  UNL1       -0.1835
      8 N          63.3507   85.0088   16.2121 N.pl3   1  UNL1       -0.3144
      9 H          63.9448   84.5409   16.8425 H       1  UNL1        0.1485
     10 C          62.1848   84.2871   15.6039 C.3     1  UNL1        0.1169
     11 C          62.3921   83.3937   14.4169 C.ar    1  UNL1        0.0166
     12 C          62.0007   81.9475   14.4892 C.ar    1  UNL1        0.0004
     13 C          62.2080   81.0542   13.3022 C.ar    1  UNL1        0.0228
     14 C          62.8066   81.6070   12.0429 C.ar    1  UNL1        0.1526
     15 N          63.1980   83.0533   11.9706 N.ar    1  UNL1       -0.2401
     16 C          62.9907   83.9466   13.1576 C.ar    1  UNL1        0.0961
     17 C          63.0139   80.7137   10.8559 C.3     1  UNL1        0.4348
     18 F          63.2211   79.8203    9.6689 F       1  UNL1       -0.1644
     19 F          62.6106   79.5264   11.6791 F       1  UNL1       -0.1644
     20 F          63.4172   81.9011   10.0327 F       1  UNL1       -0.1644
     21 C          64.3938   90.7469   14.8027 C.3     1  UNL1        0.0603
     22 C          60.1305   88.7722   11.2367 C.3     1  UNL1        0.0307
     23 C          61.3369   89.6611   11.1705 C.2     1  UNL1        0.0074
     24 C          61.7089   90.3256    9.8782 C.2     1  UNL1        0.2278
     25 N          62.9154   91.2145    9.8121 N.2     1  UNL1       -0.0314
     26 C          63.7498   91.4388   11.0381 C.2     1  UNL1        0.3716
     27 N          64.9854   92.2555   11.2757 N.2     1  UNL1       -0.0311
     28 C          65.3770   92.0956   12.7149 C.2     1  UNL1        0.2319
     29 C          64.3835   91.1803   13.3667 C.2     1  UNL1        0.0328
     30 C          63.3778   90.7743   12.3304 C.2     1  UNL1        0.0704
     31 C          62.1713   89.8855   12.3966 C.3     1  UNL1        0.0598
@<TRIPOS>BOND
     1    22    23    1
     2    23    24    2
     3    24    25    1
     4    25    26    2
     5    26    27    1
     6    27    28    2
     7    28    29    1
     8    29    21    1
     9    21     1    1
    10     1     2   ar
    11     2     3   ar
    12     3     4   ar
    13     4     8    1
    14     8    10    1
    15    10    11    1
    16    11    12   ar
    17    12    13   ar
    18    13    14   ar
    19    14    17    1
    20    17    18    1
    21    17    19    1
    22    17    20    1
    23    14    15   ar
    24    15    16   ar
    25     4     5   ar
    26     5     6   ar
    27     6     7    1
    28    29    30    2
    29    30    31    1
    30    31    23    1
    31    30    26    1
    32     6     1   ar
    33    16    11   ar
    34     8     9    1
@<TRIPOS>MOLECULE
*****
 31 34 0 0 0
SMALL
GASTEIGER

@<TRIPOS>ATOM
      1 C          63.8107   87.9002   15.6993 C.ar    1  UNL1        0.0284
      2 C          64.6372   87.2775   14.6135 C.ar    1  UNL1        0.0027
      3 C          64.7956   85.7872   14.5525 C.ar    1  UNL1        0.0339
      4 C          64.1275   84.9194   15.5775 C.ar    1  UNL1        0.1311
      5 N          63.3009   85.5421   16.6634 N.ar    1  UNL1       -0.2035
      6 C          63.1425   87.0325   16.7244 C.ar    1  UNL1        0.2196
      7 F          62.3160   87.6550   17.8103 F       1  UNL1       -0.1835
      8 N          64.2859   83.4290   15.5166 N.pl3   1  UNL1       -0.3144
      9 H          64.8358   82.9646   16.1882 H       1  UNL1        0.1485
     10 C          63.6064   82.6463   14.4324 C.3     1  UNL1        0.1169
     11 C          63.4519   83.2395   13.0633 C.ar    1  UNL1        0.0166
     12 C          64.3404   82.7840   11.9439 C.ar    1  UNL1        0.0004
     13 C          64.1860   83.3772   10.5749 C.ar    1  UNL1        0.0228
     14 C          63.1430   84.4260   10.3252 C.ar    1  UNL1        0.1526
     15 N          62.2545   84.8815   11.4447 N.ar    1  UNL1       -0.2401
     16 C          62.4090   84.2883   12.8137 C.ar    1  UNL1        0.0961
     17 C          62.9886   85.0192    8.9562 C.3     1  UNL1        0.4348
     18 F          62.8342   85.6124    7.5872 F       1  UNL1       -0.1644
     19 F          63.5321   83.7598    8.3492 F       1  UNL1       -0.1644
     20 F          62.4451   86.2787    9.5633 F       1  UNL1       -0.1644
     21 C          63.6523   89.3905   15.7603 C.3     1  UNL1        0.0603
     22 C          67.9039   93.4786   15.6980 C.3     1  UNL1        0.0307
     23 C          66.8441   92.9370   14.7850 C.2     1  UNL1        0.0074
     24 C          66.6868   93.4979   13.4027 C.2     1  UNL1        0.2278
     25 N          65.6270   92.9563   12.4897 N.2     1  UNL1       -0.0314
     26 C          64.7245   91.8540   12.9589 C.2     1  UNL1        0.3716
     27 N          63.5984   91.1246   12.2882 N.2     1  UNL1       -0.0311
     28 C          63.0597   90.1130   13.2559 C.2     1  UNL1        0.2319
     29 C          63.8528   90.2172   14.5248 C.2     1  UNL1        0.0328
     30 C          64.8818   91.2932   14.3412 C.2     1  UNL1        0.0704
     31 C          65.9415   91.8347   15.2542 C.3     1  UNL1        0.0598
@<TRIPOS>BOND
     1    22    23    1
     2    23    24    2
     3    24    25    1
     4    25    26    2
     5    26    27    1
     6    27    28    2
     7    28    29    1
     8    29    21    1
     9    21     1    1
    10     1     2   ar
    11     2     3   ar
    12     3     4   ar
    13     4     8    1
    14     8    10    1
    15    10    11    1
    16    11    12   ar
    17    12    13   ar
    18    13    14   ar
    19    14    17    1
    20    17    18    1
    21    17    19    1
    22    17    20    1
    23    14    15   ar
    24    15    16   ar
    25     4     5   ar
    26     5     6   ar
    27     6     7    1
    28    29    30    2
    29    30    31    1
    30    31    23    1
    31    30    26    1
    32     6     1   ar
    33    16    11   ar
    34     8     9    1
@<TRIPOS>MOLECULE
*****
 31 34 0 0 0
SMALL
GASTEIGER

@<TRIPOS>ATOM
      1 C          63.4783   89.1073   14.4315 C.ar    1  UNL1        0.0284
      2 C          63.8707   88.0342   13.4597 C.ar    1  UNL1        0.0027
      3 C          64.1290   86.6392   13.9467 C.ar    1  UNL1        0.0339
      4 C          63.9950   86.3172   15.4056 C.ar    1  UNL1        0.1311
      5 N          63.6026   87.3904   16.3775 N.ar    1  UNL1       -0.2035
      6 C          63.3442   88.7854   15.8905 C.ar    1  UNL1        0.2196
      7 F          62.9518   89.8585   16.8623 F       1  UNL1       -0.1835
      8 N          64.2533   84.9222   15.8926 N.pl3   1  UNL1       -0.3144
      9 H          65.1203   84.6959   16.3006 H       1  UNL1        0.1485
     10 C          63.1908   83.8721   15.7581 C.3     1  UNL1        0.1169
     11 C          63.1380   83.0115   14.5307 C.ar    1  UNL1        0.0166
     12 C          62.0108   82.0396   14.3440 C.ar    1  UNL1        0.0004
     13 C          61.9581   81.1790   13.1166 C.ar    1  UNL1        0.0228
     14 C          63.0325   81.2902   12.0758 C.ar    1  UNL1        0.1526
     15 N          64.1598   82.2622   12.2626 N.ar    1  UNL1       -0.2401
     16 C          64.2125   83.1227   13.4900 C.ar    1  UNL1        0.0961
     17 C          62.9798   80.4296   10.8484 C.3     1  UNL1        0.4348
     18 F          62.9270   79.5690    9.6210 F       1  UNL1       -0.1644
     19 F          62.5504   79.2616   11.6859 F       1  UNL1       -0.1644
     20 F          63.4091   81.5977   10.0110 F       1  UNL1       -0.1644
     21 C          63.2199   90.5023   13.9445 C.3     1  UNL1        0.0603
     22 C          68.3720   92.0305   16.3760 C.3     1  UNL1        0.0307
     23 C          67.6766   92.1247   15.0503 C.2     1  UNL1        0.0074
     24 C          68.3639   92.7766   13.8873 C.2     1  UNL1        0.2278
     25 N          67.6684   92.8708   12.5617 N.2     1  UNL1       -0.0314
     26 C          66.2856   92.3130   12.3989 C.2     1  UNL1        0.3716
     27 N          65.3568   92.2599   11.2223 N.2     1  UNL1       -0.0311
     28 C          64.0953   91.5751   11.6580 C.2     1  UNL1        0.2319
     29 C          64.2445   91.2050   13.1040 C.2     1  UNL1        0.0328
     30 C          65.5982   91.6611   13.5619 C.2     1  UNL1        0.0704
     31 C          66.2937   91.5669   14.8875 C.3     1  UNL1        0.0598
@<TRIPOS>BOND
     1    22    23    1
     2    23    24    2
     3    24    25    1
     4    25    26    2
     5    26    27    1
     6    27    28    2
     7    28    29    1
     8    29    21    1
     9    21     1    1
    10     1     2   ar
    11     2     3   ar
    12     3     4   ar
    13     4     8    1
    14     8    10    1
    15    10    11    1
    16    11    12   ar
    17    12    13   ar
    18    13    14   ar
    19    14    17    1
    20    17    18    1
    21    17    19    1
    22    17    20    1
    23    14    15   ar
    24    15    16   ar
    25     4     5   ar
    26     5     6   ar
    27     6     7    1
    28    29    30    2
    29    30    31    1
    30    31    23    1
    31    30    26    1
    32     6     1   ar
    33    16    11   ar
    34     8     9    1
@<TRIPOS>MOLECULE
*****
 31 34 0 0 0
SMALL
GASTEIGER

@<TRIPOS>ATOM
      1 C          63.3045   84.0719   14.8692 C.ar    1  UNL1        0.0284
      2 C          62.0834   84.3906   15.6799 C.ar    1  UNL1        0.0027
      3 C          62.0425   85.6346   16.5170 C.ar    1  UNL1        0.0339
      4 C          63.2228   86.5600   16.5434 C.ar    1  UNL1        0.1311
      5 N          64.4439   86.2412   15.7327 N.ar    1  UNL1       -0.2035
      6 C          64.4849   84.9972   14.8956 C.ar    1  UNL1        0.2196
      7 F          65.7060   84.6785   14.0850 F       1  UNL1       -0.1835
      8 N          63.1818   87.8040   17.3805 N.pl3   1  UNL1       -0.3144
      9 H          63.5016   87.7817   18.3113 H       1  UNL1        0.1485
     10 C          62.6538   89.0820   16.7992 C.3     1  UNL1        0.1169
     11 C          63.5161   89.9041   15.8878 C.ar    1  UNL1        0.0166
     12 C          63.8375   89.4074   14.5095 C.ar    1  UNL1        0.0004
     13 C          64.6998   90.2294   13.5981 C.ar    1  UNL1        0.0228
     14 C          65.2408   91.5482   14.0651 C.ar    1  UNL1        0.1526
     15 N          64.9194   92.0449   15.4435 N.ar    1  UNL1       -0.2401
     16 C          64.0571   91.2229   16.3548 C.ar    1  UNL1        0.0961
     17 C          66.1031   92.3703   13.1537 C.3     1  UNL1        0.4348
     18 F          66.9654   93.1923   12.2423 F       1  UNL1       -0.1644
     19 F          64.8896   92.7747   12.3703 F       1  UNL1       -0.1644
     20 F          67.3167   91.9658   13.9372 F       1  UNL1       -0.1644
     21 C          63.3454   82.8278   14.0322 C.3     1  UNL1        0.0603
     22 C          60.9347   87.1834   10.8685 C.3     1  UNL1        0.0307
     23 C          61.8498   86.0124   10.6650 C.2     1  UNL1        0.0074
     24 C          62.4073   85.7241    9.3027 C.2     1  UNL1        0.2278
     25 N          63.3224   84.5531    9.0992 N.2     1  UNL1       -0.0314
     26 C          63.6799   83.6704   10.2581 C.2     1  UNL1        0.3716
     27 N          64.5509   82.4536   10.3617 N.2     1  UNL1       -0.0311
     28 C          64.5316   81.9898   11.7881 C.2     1  UNL1        0.2319
     29 C          63.6487   82.9200   12.5661 C.2     1  UNL1        0.0328
     30 C          63.1223   83.9587   11.6204 C.2     1  UNL1        0.0704
     31 C          62.2073   85.1297   11.8238 C.3     1  UNL1        0.0598
@<TRIPOS>BOND
     1    22    23    1
     2    23    24    2
     3    24    25    1
     4    25    26    2
     5    26    27    1
     6    27    28    2
     7    28    29    1
     8    29    21    1
     9    21     1    1
    10     1     2   ar
    11     2     3   ar
    12     3     4   ar
    13     4     8    1
    14     8    10    1
    15    10    11    1
    16    11    12   ar
    17    12    13   ar
    18    13    14   ar
    19    14    17    1
    20    17    18    1
    21    17    19    1
    22    17    20    1
    23    14    15   ar
    24    15    16   ar
    25     4     5   ar
    26     5     6   ar
    27     6     7    1
    28    29    30    2
    29    30    31    1
    30    31    23    1
    31    30    26    1
    32     6     1   ar
    33    16    11   ar
    34     8     9    1
