@<TRIPOS>MOLECULE
*****
 31 35 0 0 0
SMALL
GASTEIGER

@<TRIPOS>ATOM
      1 C          63.5063   84.8979   13.2577 C.ar    1  UNL1        0.1389
      2 C          63.5621   86.3933   13.1549 C.ar    1  UNL1        0.0397
      3 C          62.9059   87.0908   12.0004 C.ar    1  UNL1        0.0350
      4 C          62.1937   86.2929   10.9488 C.ar    1  UNL1        0.0778
      5 C          62.1378   84.7975   11.0515 C.ar    1  UNL1        0.0219
      6 C          62.7941   84.1000   12.2060 C.ar    1  UNL1        0.0394
      7 N          61.5374   86.9904    9.7943 N.2     1  UNL1       -0.2641
      8 C          61.5933   88.4858    9.6915 C.3     1  UNL1        0.1696
      9 C          62.3055   89.2838   10.7432 C.2     1  UNL1        0.0908
     10 N          62.5245   90.7586   10.9075 N.am    1  UNL1       -0.1630
     11 C          63.3160   90.9725   12.1635 C.2     1  UNL1        0.3313
     12 O          63.7595   92.2966   12.7114 O.2     1  UNL1       -0.2501
     13 N          63.5863   89.6301   12.7755 N.am    1  UNL1       -0.2368
     14 C          62.9618   88.5863   11.8977 C.2     1  UNL1        0.0703
     15 C          62.7381   82.6045   12.3088 C.ar    1  UNL1        0.0526
     16 C          62.1046   81.8201   13.4193 C.ar    1  UNL1        0.1007
     17 C          61.4157   82.3934   14.6221 C.3     1  UNL1        0.0557
     18 N          62.2809   80.3618   13.1159 N.ar    1  UNL1       -0.0817
     19 O          63.0234   80.2448   11.8178 O.2     1  UNL1       -0.3581
     20 C          63.3060   81.6309   11.3190 C.ar    1  UNL1        0.1545
     21 C          64.0294   81.9818   10.0527 C.3     1  UNL1        0.0754
     22 C          63.8868   84.6514   15.8159 C.3     1  UNL1        0.2525
     23 O          64.1625   84.2004   14.4122 O.3     1  UNL1       -0.4714
     24 C          64.3475   89.3758   14.0427 C.3     1  UNL1        0.1214
     25 C          64.4130   87.9901   14.6132 C.3     1  UNL1        0.0285
     26 C          65.0433   90.5074   14.7396 C.ar    1  UNL1        0.0774
     27 C          66.4514   90.8655   14.3666 C.ar    1  UNL1        0.0164
     28 C          67.1470   91.9971   15.0635 C.ar    1  UNL1        0.0029
     29 C          66.4347   92.7705   16.1333 C.ar    1  UNL1        0.0207
     30 C          65.0266   92.4123   16.5062 C.ar    1  UNL1        0.0985
     31 N          64.3310   91.2807   15.8094 N.ar    1  UNL1       -0.2465
@<TRIPOS>BOND
     1    22    23    1
     2    23     1    1
     3     1     2   ar
     4     2     3   ar
     5     3     4   ar
     6     4     5   ar
     7     5     6   ar
     8     6    15    1
     9    15    16   ar
    10    16    17    1
    11    16    18   ar
    12    18    19   ar
    13    19    20   ar
    14    20    21    1
    15     4     7    2
    16     7     8    1
    17     8     9    1
    18     9    10    2
    19    10    11    1
    20    11    12    2
    21    11    13   am
    22    13    24    1
    23    24    25    1
    24    24    26    1
    25    26    27   ar
    26    27    28   ar
    27    28    29   ar
    28    29    30   ar
    29    30    31   ar
    30    13    14    1
    31     6     1   ar
    32    20    15   ar
    33    14     9    1
    34    14     3    2
    35    31    26   ar
@<TRIPOS>MOLECULE
*****
 31 35 0 0 0
SMALL
GASTEIGER

@<TRIPOS>ATOM
      1 C          59.1996   95.3713   -2.6137 C.ar    1  UNL1        0.1389
      2 C          60.4811   95.1390   -1.8696 C.ar    1  UNL1        0.0397
      3 C          60.4716   94.3714   -0.5809 C.ar    1  UNL1        0.0350
      4 C          59.1806   93.8361   -0.0363 C.ar    1  UNL1        0.0778
      5 C          57.8991   94.0684   -0.7804 C.ar    1  UNL1        0.0219
      6 C          57.9086   94.8360   -2.0691 C.ar    1  UNL1        0.0394
      7 N          59.1711   93.0685    1.2524 N.2     1  UNL1       -0.2641
      8 C          60.4526   92.8363    1.9965 C.3     1  UNL1        0.1696
      9 C          61.7437   93.3716    1.4518 C.2     1  UNL1        0.0908
     10 N          63.1534   93.3008    1.9596 N.am    1  UNL1       -0.1630
     11 C          64.0341   94.0246    0.9847 C.2     1  UNL1        0.3313
     12 O          65.5194   94.1995    1.0999 O.2     1  UNL1       -0.2501
     13 N          63.1688   94.5427   -0.1255 N.am    1  UNL1       -0.2368
     14 C          61.7532   94.1391    0.1632 C.2     1  UNL1        0.0703
     15 C          56.6269   95.0683   -2.8132 C.ar    1  UNL1        0.0526
     16 C          55.5233   95.9963   -2.4000 C.ar    1  UNL1        0.1007
     17 C          55.5074   96.8550   -1.1702 C.3     1  UNL1        0.0557
     18 N          54.4383   95.9148   -3.4325 N.ar    1  UNL1       -0.0817
     19 O          54.8714   94.9364   -4.4839 O.2     1  UNL1       -0.3581
     20 C          56.2240   94.4133   -4.1011 C.ar    1  UNL1        0.1545
     21 C          57.0319   93.4110   -4.8710 C.3     1  UNL1        0.0754
     22 C          60.0292   95.6512   -5.0598 C.3     1  UNL1        0.2525
     23 O          59.2091   96.1389   -3.9024 O.3     1  UNL1       -0.4714
     24 C          63.6368   95.3268   -1.3156 C.3     1  UNL1        0.1214
     25 C          63.7675   96.8184   -1.2268 C.3     1  UNL1        0.0285
     26 C          63.9741   94.6192   -2.5945 C.ar    1  UNL1        0.0774
     27 C          63.6413   93.1658   -2.7578 C.ar    1  UNL1        0.0164
     28 C          63.9787   92.4583   -4.0367 C.ar    1  UNL1        0.0029
     29 C          64.6488   93.2041   -5.1523 C.ar    1  UNL1        0.0207
     30 C          64.9817   94.6576   -4.9889 C.ar    1  UNL1        0.0985
     31 N          64.6443   95.3651   -3.7100 N.ar    1  UNL1       -0.2465
@<TRIPOS>BOND
     1    22    23    1
     2    23     1    1
     3     1     2   ar
     4     2     3   ar
     5     3     4   ar
     6     4     5   ar
     7     5     6   ar
     8     6    15    1
     9    15    16   ar
    10    16    17    1
    11    16    18   ar
    12    18    19   ar
    13    19    20   ar
    14    20    21    1
    15     4     7    2
    16     7     8    1
    17     8     9    1
    18     9    10    2
    19    10    11    1
    20    11    12    2
    21    11    13   am
    22    13    24    1
    23    24    25    1
    24    24    26    1
    25    26    27   ar
    26    27    28   ar
    27    28    29   ar
    28    29    30   ar
    29    30    31   ar
    30    13    14    1
    31     6     1   ar
    32    20    15   ar
    33    14     9    1
    34    14     3    2
    35    31    26   ar
@<TRIPOS>MOLECULE
*****
 31 35 0 0 0
SMALL
GASTEIGER

@<TRIPOS>ATOM
      1 C          59.4785   94.5842   -4.2763 C.ar    1  UNL1        0.1389
      2 C          60.6714   94.5143   -3.3696 C.ar    1  UNL1        0.0397
      3 C          60.5875   93.7583   -2.0767 C.ar    1  UNL1        0.0350
      4 C          59.3108   93.0722   -1.6906 C.ar    1  UNL1        0.0778
      5 C          58.1179   93.1421   -2.5973 C.ar    1  UNL1        0.0219
      6 C          58.2018   93.8981   -3.8901 C.ar    1  UNL1        0.0394
      7 N          59.2270   92.3162   -0.3977 N.2     1  UNL1       -0.2641
      8 C          60.4198   92.2463    0.5089 C.3     1  UNL1        0.1696
      9 C          61.6967   92.9325    0.1228 C.2     1  UNL1        0.0908
     10 N          63.0268   93.0372    0.8081 N.am    1  UNL1       -0.1630
     11 C          63.9327   93.8580   -0.0612 C.2     1  UNL1        0.3313
     12 O          65.3586   94.2138    0.2394 O.2     1  UNL1       -0.2501
     13 N          63.1625   94.2605   -1.2837 N.am    1  UNL1       -0.2368
     14 C          61.7805   93.6885   -1.1700 C.2     1  UNL1        0.0703
     15 C          57.0088   93.9680   -4.7968 C.ar    1  UNL1        0.0526
     16 C          56.6580   92.9805   -5.8700 C.ar    1  UNL1        0.1007
     17 C          57.4385   91.7497   -6.2250 C.3     1  UNL1        0.0557
     18 N          55.3896   93.4398   -6.5259 N.ar    1  UNL1       -0.0817
     19 O          54.9565   94.7112   -5.8580 O.2     1  UNL1       -0.3581
     20 C          55.9572   95.0376   -4.7894 C.ar    1  UNL1        0.1545
     21 C          55.9140   96.2252   -3.8741 C.3     1  UNL1        0.0754
     22 C          60.1443   94.6835   -6.7856 C.3     1  UNL1        0.2525
     23 O          59.5623   95.3402   -5.5691 O.3     1  UNL1       -0.4714
     24 C          63.6828   95.0894   -2.4204 C.3     1  UNL1        0.1214
     25 C          63.6559   96.5865   -2.3307 C.3     1  UNL1        0.0285
     26 C          64.2301   94.4213   -3.6468 C.ar    1  UNL1        0.0774
     27 C          64.1518   92.9299   -3.7866 C.ar    1  UNL1        0.0164
     28 C          64.6992   92.2619   -5.0131 C.ar    1  UNL1        0.0029
     29 C          65.3248   93.0852   -6.0997 C.ar    1  UNL1        0.0207
     30 C          65.4031   94.5766   -5.9598 C.ar    1  UNL1        0.0985
     31 N          64.8558   95.2446   -4.7334 N.ar    1  UNL1       -0.2465
@<TRIPOS>BOND
     1    22    23    1
     2    23     1    1
     3     1     2   ar
     4     2     3   ar
     5     3     4   ar
     6     4     5   ar
     7     5     6   ar
     8     6    15    1
     9    15    16   ar
    10    16    17    1
    11    16    18   ar
    12    18    19   ar
    13    19    20   ar
    14    20    21    1
    15     4     7    2
    16     7     8    1
    17     8     9    1
    18     9    10    2
    19    10    11    1
    20    11    12    2
    21    11    13   am
    22    13    24    1
    23    24    25    1
    24    24    26    1
    25    26    27   ar
    26    27    28   ar
    27    28    29   ar
    28    29    30   ar
    29    30    31   ar
    30    13    14    1
    31     6     1   ar
    32    20    15   ar
    33    14     9    1
    34    14     3    2
    35    31    26   ar
@<TRIPOS>MOLECULE
*****
 31 35 0 0 0
SMALL
GASTEIGER

@<TRIPOS>ATOM
      1 C          61.0436   87.1047   11.1651 C.ar    1  UNL1        0.1389
      2 C          61.7879   86.1441   12.0444 C.ar    1  UNL1        0.0397
      3 C          62.6763   85.1015   11.4329 C.ar    1  UNL1        0.0350
      4 C          62.8204   85.0195    9.9422 C.ar    1  UNL1        0.0778
      5 C          62.0761   85.9801    9.0628 C.ar    1  UNL1        0.0219
      6 C          61.1877   87.0227    9.6743 C.ar    1  UNL1        0.0394
      7 N          63.7087   83.9770    9.3307 N.2     1  UNL1       -0.2641
      8 C          64.4530   83.0164   10.2100 C.3     1  UNL1        0.1696
      9 C          64.3089   83.0983   11.7009 C.2     1  UNL1        0.0908
     10 N          64.9130   82.2937   12.8134 N.am    1  UNL1       -0.1630
     11 C          64.3980   82.8390   14.1124 C.2     1  UNL1        0.3313
     12 O          64.7446   82.3317   15.4808 O.2     1  UNL1       -0.2501
     13 N          63.4757   83.9806   13.8028 N.am    1  UNL1       -0.2368
     14 C          63.4206   84.1409   12.3124 C.2     1  UNL1        0.0703
     15 C          60.4434   87.9833    8.7949 C.ar    1  UNL1        0.0526
     16 C          59.3527   87.6297    7.8278 C.ar    1  UNL1        0.1007
     17 C          58.8146   86.2534    7.5703 C.3     1  UNL1        0.0557
     18 N          58.8944   88.8940    7.1634 N.ar    1  UNL1       -0.0817
     19 O          59.7019   90.0291    7.7199 O.2     1  UNL1       -0.3581
     20 C          60.6592   89.4662    8.7281 C.ar    1  UNL1        0.1545
     21 C          61.6572   90.2489    9.5291 C.3     1  UNL1        0.0754
     22 C          60.7568   89.3603   12.4219 C.3     1  UNL1        0.2525
     23 O          60.1553   88.1473   11.7765 O.3     1  UNL1       -0.4714
     24 C          62.7379   84.8154   14.8071 C.3     1  UNL1        0.1214
     25 C          61.5473   84.2496   15.5230 C.3     1  UNL1        0.0285
     26 C          63.1906   86.2160   15.0956 C.ar    1  UNL1        0.0774
     27 C          64.0338   86.9524   14.0972 C.ar    1  UNL1        0.0164
     28 C          64.4864   88.3531   14.3858 C.ar    1  UNL1        0.0029
     29 C          64.0959   89.0174   15.6727 C.ar    1  UNL1        0.0207
     30 C          63.2527   88.2810   16.6711 C.ar    1  UNL1        0.0985
     31 N          62.8001   86.8804   16.3825 N.ar    1  UNL1       -0.2465
@<TRIPOS>BOND
     1    22    23    1
     2    23     1    1
     3     1     2   ar
     4     2     3   ar
     5     3     4   ar
     6     4     5   ar
     7     5     6   ar
     8     6    15    1
     9    15    16   ar
    10    16    17    1
    11    16    18   ar
    12    18    19   ar
    13    19    20   ar
    14    20    21    1
    15     4     7    2
    16     7     8    1
    17     8     9    1
    18     9    10    2
    19    10    11    1
    20    11    12    2
    21    11    13   am
    22    13    24    1
    23    24    25    1
    24    24    26    1
    25    26    27   ar
    26    27    28   ar
    27    28    29   ar
    28    29    30   ar
    29    30    31   ar
    30    13    14    1
    31     6     1   ar
    32    20    15   ar
    33    14     9    1
    34    14     3    2
    35    31    26   ar
@<TRIPOS>MOLECULE
*****
 31 35 0 0 0
SMALL
GASTEIGER

@<TRIPOS>ATOM
      1 C          64.0403   90.1140   13.0694 C.ar    1  UNL1        0.1389
      2 C          63.5336   88.8244   12.4949 C.ar    1  UNL1        0.0397
      3 C          63.7606   87.5359   13.2285 C.ar    1  UNL1        0.0350
      4 C          64.4944   87.5370   14.5368 C.ar    1  UNL1        0.0778
      5 C          65.0012   88.8266   15.1113 C.ar    1  UNL1        0.0219
      6 C          64.7741   90.1151   14.3776 C.ar    1  UNL1        0.0394
      7 N          64.7215   86.2485   15.2704 N.2     1  UNL1       -0.2641
      8 C          64.2147   84.9590   14.6959 C.3     1  UNL1        0.1696
      9 C          63.4809   84.9578   13.3876 C.2     1  UNL1        0.0908
     10 N          62.8698   83.8509   12.5804 N.am    1  UNL1       -0.1630
     11 C          62.2652   84.4553   11.3480 C.2     1  UNL1        0.3313
     12 O          61.5489   83.7102   10.2610 O.2     1  UNL1       -0.2501
     13 N          62.5025   85.9357   11.3934 N.am    1  UNL1       -0.2368
     14 C          63.2538   86.2463   12.6539 C.2     1  UNL1        0.0703
     15 C          65.2809   91.4047   14.9522 C.ar    1  UNL1        0.0526
     16 C          66.4124   92.2270   14.4105 C.ar    1  UNL1        0.1007
     17 C          67.2358   91.9041   13.1990 C.3     1  UNL1        0.0557
     18 N          66.5759   93.4289   15.2929 N.ar    1  UNL1       -0.0817
     19 O          65.5455   93.3494   16.3801 O.2     1  UNL1       -0.3581
     20 C          64.7451   92.0984   16.1695 C.ar    1  UNL1        0.1545
     21 C          63.6085   91.6243   17.0259 C.3     1  UNL1        0.0754
     22 C          64.2806   91.5508   10.9182 C.3     1  UNL1        0.2525
     23 O          63.8133   91.4024   12.3357 O.3     1  UNL1       -0.4714
     24 C          62.0652   86.9309   10.3597 C.3     1  UNL1        0.1214
     25 C          62.5138   86.7800    8.9363 C.3     1  UNL1        0.0285
     26 C          61.1793   88.0769   10.7494 C.ar    1  UNL1        0.0774
     27 C          61.3325   89.4069   10.0730 C.ar    1  UNL1        0.0164
     28 C          60.4465   90.5529   10.4628 C.ar    1  UNL1        0.0029
     29 C          59.4076   90.3689   11.5289 C.ar    1  UNL1        0.0207
     30 C          59.2545   89.0388   12.2053 C.ar    1  UNL1        0.0985
     31 N          60.1404   87.8929   11.8155 N.ar    1  UNL1       -0.2465
@<TRIPOS>BOND
     1    22    23    1
     2    23     1    1
     3     1     2   ar
     4     2     3   ar
     5     3     4   ar
     6     4     5   ar
     7     5     6   ar
     8     6    15    1
     9    15    16   ar
    10    16    17    1
    11    16    18   ar
    12    18    19   ar
    13    19    20   ar
    14    20    21    1
    15     4     7    2
    16     7     8    1
    17     8     9    1
    18     9    10    2
    19    10    11    1
    20    11    12    2
    21    11    13   am
    22    13    24    1
    23    24    25    1
    24    24    26    1
    25    26    27   ar
    26    27    28   ar
    27    28    29   ar
    28    29    30   ar
    29    30    31   ar
    30    13    14    1
    31     6     1   ar
    32    20    15   ar
    33    14     9    1
    34    14     3    2
    35    31    26   ar
@<TRIPOS>MOLECULE
*****
 31 35 0 0 0
SMALL
GASTEIGER

@<TRIPOS>ATOM
      1 C          61.8582   87.8716   11.5108 C.ar    1  UNL1        0.1389
      2 C          62.4973   88.6846   12.5973 C.ar    1  UNL1        0.0397
      3 C          63.3146   89.8929   12.2480 C.ar    1  UNL1        0.0350
      4 C          63.4927   90.2882   10.8120 C.ar    1  UNL1        0.0778
      5 C          62.8536   89.4753    9.7255 C.ar    1  UNL1        0.0219
      6 C          62.0363   88.2670   10.0749 C.ar    1  UNL1        0.0394
      7 N          64.3100   91.4965   10.4627 N.2     1  UNL1       -0.2641
      8 C          64.9491   92.3095   11.5492 C.3     1  UNL1        0.1696
      9 C          64.7710   91.9141   12.9852 C.2     1  UNL1        0.0908
     10 N          65.2767   92.5168   14.2623 N.am    1  UNL1       -0.1630
     11 C          64.7720   91.6809   15.4010 C.2     1  UNL1        0.3313
     12 O          65.0382   91.9220   16.8573 O.2     1  UNL1       -0.2501
     13 N          63.9544   90.5617   14.8277 N.am    1  UNL1       -0.2368
     14 C          63.9538   90.7058   13.3346 C.2     1  UNL1        0.0703
     15 C          61.3972   87.4540    8.9883 C.ar    1  UNL1        0.0526
     16 C          61.8490   86.1042    8.5152 C.ar    1  UNL1        0.1007
     17 C          63.0193   85.3303    9.0456 C.3     1  UNL1        0.0557
     18 N          60.9250   85.6642    7.4186 N.ar    1  UNL1       -0.0817
     19 O          59.9021   86.7421    7.2138 O.2     1  UNL1       -0.3581
     20 C          60.1939   87.8483    8.1840 C.ar    1  UNL1        0.1545
     21 C          59.4186   89.1246    8.3251 C.3     1  UNL1        0.0754
     22 C          61.7194   85.3581   12.1534 C.3     1  UNL1        0.2525
     23 O          61.0409   86.6633   11.8602 O.3     1  UNL1       -0.4714
     24 C          63.2594   89.4870   15.6100 C.3     1  UNL1        0.1214
     25 C          62.0830   89.8306   16.4749 C.3     1  UNL1        0.0285
     26 C          63.7406   88.0688   15.5273 C.ar    1  UNL1        0.0774
     27 C          64.8262   87.7003   14.5599 C.ar    1  UNL1        0.0164
     28 C          65.3074   86.2820   14.4773 C.ar    1  UNL1        0.0029
     29 C          64.7032   85.2321   15.3621 C.ar    1  UNL1        0.0207
     30 C          63.6176   85.6007   16.3294 C.ar    1  UNL1        0.0985
     31 N          63.1364   87.0190   16.4120 N.ar    1  UNL1       -0.2465
@<TRIPOS>BOND
     1    22    23    1
     2    23     1    1
     3     1     2   ar
     4     2     3   ar
     5     3     4   ar
     6     4     5   ar
     7     5     6   ar
     8     6    15    1
     9    15    16   ar
    10    16    17    1
    11    16    18   ar
    12    18    19   ar
    13    19    20   ar
    14    20    21    1
    15     4     7    2
    16     7     8    1
    17     8     9    1
    18     9    10    2
    19    10    11    1
    20    11    12    2
    21    11    13   am
    22    13    24    1
    23    24    25    1
    24    24    26    1
    25    26    27   ar
    26    27    28   ar
    27    28    29   ar
    28    29    30   ar
    29    30    31   ar
    30    13    14    1
    31     6     1   ar
    32    20    15   ar
    33    14     9    1
    34    14     3    2
    35    31    26   ar
@<TRIPOS>MOLECULE
*****
 31 35 0 0 0
SMALL
GASTEIGER

@<TRIPOS>ATOM
      1 C          63.6621   89.6295   12.9608 C.ar    1  UNL1        0.1389
      2 C          63.2487   88.2385   12.5809 C.ar    1  UNL1        0.0397
      3 C          63.7710   87.0635   13.3534 C.ar    1  UNL1        0.0350
      4 C          64.7067   87.2796   14.5056 C.ar    1  UNL1        0.0778
      5 C          65.1201   88.6705   14.8855 C.ar    1  UNL1        0.0219
      6 C          64.5977   89.8455   14.1131 C.ar    1  UNL1        0.0394
      7 N          65.2290   86.1046   15.2781 N.2     1  UNL1       -0.2641
      8 C          64.8157   84.7136   14.8982 C.3     1  UNL1        0.1696
      9 C          63.8800   84.4976   13.7459 C.2     1  UNL1        0.0908
     10 N          63.3006   83.2521   13.1433 N.am    1  UNL1       -0.1630
     11 C          62.4202   83.6573   11.9985 C.2     1  UNL1        0.3313
     12 O          61.6414   82.7295   11.1139 O.2     1  UNL1       -0.2501
     13 N          62.4555   85.1532   11.8935 N.am    1  UNL1       -0.2368
     14 C          63.3576   85.6725   12.9735 C.2     1  UNL1        0.0703
     15 C          65.0111   91.2365   14.4930 C.ar    1  UNL1        0.0526
     16 C          65.8224   92.1761   13.6510 C.ar    1  UNL1        0.1007
     17 C          66.3628   91.8898   12.2814 C.3     1  UNL1        0.0557
     18 N          65.9985   93.4524   14.4192 N.ar    1  UNL1       -0.0817
     19 O          65.2960   93.3015   15.7360 O.2     1  UNL1       -0.3581
     20 C          64.6858   91.9320   15.7815 C.ar    1  UNL1        0.1545
     21 C          63.8899   91.3587   16.9164 C.3     1  UNL1        0.0754
     22 C          62.7389   90.6397   10.7523 C.3     1  UNL1        0.2525
     23 O          63.1397   90.8044   12.1883 O.3     1  UNL1       -0.4714
     24 C          61.7180   85.9840   10.8855 C.3     1  UNL1        0.1214
     25 C          60.9086   87.1644   11.3344 C.3     1  UNL1        0.0285
     26 C          61.7899   85.6343    9.4286 C.ar    1  UNL1        0.0774
     27 C          63.0513   85.0579    8.8570 C.ar    1  UNL1        0.0164
     28 C          63.1231   84.7083    7.4000 C.ar    1  UNL1        0.0029
     29 C          61.9337   84.9351    6.5147 C.ar    1  UNL1        0.0207
     30 C          60.6723   85.5115    7.0864 C.ar    1  UNL1        0.0985
     31 N          60.6005   85.8611    8.5433 N.ar    1  UNL1       -0.2465
@<TRIPOS>BOND
     1    22    23    1
     2    23     1    1
     3     1     2   ar
     4     2     3   ar
     5     3     4   ar
     6     4     5   ar
     7     5     6   ar
     8     6    15    1
     9    15    16   ar
    10    16    17    1
    11    16    18   ar
    12    18    19   ar
    13    19    20   ar
    14    20    21    1
    15     4     7    2
    16     7     8    1
    17     8     9    1
    18     9    10    2
    19    10    11    1
    20    11    12    2
    21    11    13   am
    22    13    24    1
    23    24    25    1
    24    24    26    1
    25    26    27   ar
    26    27    28   ar
    27    28    29   ar
    28    29    30   ar
    29    30    31   ar
    30    13    14    1
    31     6     1   ar
    32    20    15   ar
    33    14     9    1
    34    14     3    2
    35    31    26   ar
@<TRIPOS>MOLECULE
*****
 31 35 0 0 0
SMALL
GASTEIGER

@<TRIPOS>ATOM
      1 C          63.7662   88.8062   12.9393 C.ar    1  UNL1        0.1389
      2 C          63.5348   87.4323   12.3837 C.ar    1  UNL1        0.0397
      3 C          63.7228   86.2282   13.2583 C.ar    1  UNL1        0.0350
      4 C          64.1421   86.3981   14.6884 C.ar    1  UNL1        0.0778
      5 C          64.3735   87.7721   15.2439 C.ar    1  UNL1        0.0219
      6 C          64.1855   88.9761   14.3694 C.ar    1  UNL1        0.0394
      7 N          64.3301   85.1940   15.5630 N.2     1  UNL1       -0.2641
      8 C          64.0987   83.8201   15.0075 C.3     1  UNL1        0.1696
      9 C          63.6794   83.6501   13.5773 C.2     1  UNL1        0.0908
     10 N          63.3801   82.4303   12.7572 N.am    1  UNL1       -0.1630
     11 C          63.0073   82.8805   11.3759 C.2     1  UNL1        0.3313
     12 O          62.6316   81.9891   10.2295 O.2     1  UNL1       -0.2501
     13 N          63.0760   84.3785   11.3422 N.am    1  UNL1       -0.2368
     14 C          63.4914   84.8542   12.7027 C.2     1  UNL1        0.0703
     15 C          64.4169   90.3501   14.9250 C.ar    1  UNL1        0.0526
     16 C          63.8098   90.9083   16.1779 C.ar    1  UNL1        0.1007
     17 C          62.8648   90.1905   17.0953 C.3     1  UNL1        0.0557
     18 N          64.3137   92.3103   16.3524 N.ar    1  UNL1       -0.0817
     19 O          65.2322   92.6187   15.2073 O.2     1  UNL1       -0.3581
     20 C          65.2960   91.4072   14.3251 C.ar    1  UNL1        0.1545
     21 C          66.0980   91.2759   13.0643 C.3     1  UNL1        0.0754
     22 C          62.2805   90.7620   12.0922 C.3     1  UNL1        0.2525
     23 O          63.5782   90.0103   12.0647 O.3     1  UNL1       -0.4714
     24 C          62.7811   85.2482   10.1561 C.3     1  UNL1        0.1214
     25 C          63.4039   84.9400    8.8268 C.3     1  UNL1        0.0285
     26 C          61.8635   86.4261   10.2994 C.ar    1  UNL1        0.0774
     27 C          61.9050   87.5361    9.2914 C.ar    1  UNL1        0.0164
     28 C          60.9873   88.7140    9.4349 C.ar    1  UNL1        0.0029
     29 C          60.0282   88.7818   10.5862 C.ar    1  UNL1        0.0207
     30 C          59.9868   87.6717   11.5942 C.ar    1  UNL1        0.0985
     31 N          60.9044   86.4939   11.4508 N.ar    1  UNL1       -0.2465
@<TRIPOS>BOND
     1    22    23    1
     2    23     1    1
     3     1     2   ar
     4     2     3   ar
     5     3     4   ar
     6     4     5   ar
     7     5     6   ar
     8     6    15    1
     9    15    16   ar
    10    16    17    1
    11    16    18   ar
    12    18    19   ar
    13    19    20   ar
    14    20    21    1
    15     4     7    2
    16     7     8    1
    17     8     9    1
    18     9    10    2
    19    10    11    1
    20    11    12    2
    21    11    13   am
    22    13    24    1
    23    24    25    1
    24    24    26    1
    25    26    27   ar
    26    27    28   ar
    27    28    29   ar
    28    29    30   ar
    29    30    31   ar
    30    13    14    1
    31     6     1   ar
    32    20    15   ar
    33    14     9    1
    34    14     3    2
    35    31    26   ar
@<TRIPOS>MOLECULE
*****
 31 35 0 0 0
SMALL
GASTEIGER

@<TRIPOS>ATOM
      1 C          63.4088   85.1337   13.1884 C.ar    1  UNL1        0.1389
      2 C          63.4419   86.6161   12.9624 C.ar    1  UNL1        0.0397
      3 C          62.8307   87.1997   11.7231 C.ar    1  UNL1        0.0350
      4 C          62.1864   86.3008   10.7098 C.ar    1  UNL1        0.0778
      5 C          62.1533   84.8184   10.9358 C.ar    1  UNL1        0.0219
      6 C          62.7645   84.2348   12.1751 C.ar    1  UNL1        0.0394
      7 N          61.5752   86.8844    9.4705 N.2     1  UNL1       -0.2641
      8 C          61.6083   88.3669    9.2445 C.3     1  UNL1        0.1696
      9 C          62.2526   89.2659   10.2578 C.2     1  UNL1        0.0908
     10 N          62.4357   90.7538   10.3072 N.am    1  UNL1       -0.1630
     11 C          63.1600   91.0898   11.5770 C.2     1  UNL1        0.3313
     12 O          63.5511   92.4647   12.0315 O.2     1  UNL1       -0.2501
     13 N          63.4246   89.8096   12.3124 N.am    1  UNL1       -0.2368
     14 C          62.8638   88.6823   11.4972 C.2     1  UNL1        0.0703
     15 C          62.7314   82.7522   12.4011 C.ar    1  UNL1        0.0526
     16 C          63.3843   81.7139   11.5376 C.ar    1  UNL1        0.1007
     17 C          64.1850   81.9758   10.2966 C.3     1  UNL1        0.0557
     18 N          63.0960   80.3677   12.1331 N.ar    1  UNL1       -0.0817
     19 O          62.2648   80.5740   13.3647 O.2     1  UNL1       -0.3581
     20 C          62.0395   82.0477   13.5303 C.ar    1  UNL1        0.1545
     21 C          61.2593   82.7020   14.6317 C.3     1  UNL1        0.0754
     22 C          63.7322   85.1632   15.7661 C.3     1  UNL1        0.2525
     23 O          64.0200   84.5501   14.4277 O.3     1  UNL1       -0.4714
     24 C          64.1268   89.6794   13.6315 C.3     1  UNL1        0.1214
     25 C          64.0705   88.3845   14.3866 C.3     1  UNL1        0.0285
     26 C          64.8852   90.8442   14.1956 C.ar    1  UNL1        0.0774
     27 C          66.0386   91.4276   13.4346 C.ar    1  UNL1        0.0164
     28 C          66.7970   92.5923   13.9989 C.ar    1  UNL1        0.0029
     29 C          66.4019   93.1737   15.3240 C.ar    1  UNL1        0.0207
     30 C          65.2484   92.5902   16.0849 C.ar    1  UNL1        0.0985
     31 N          64.4901   91.4255   15.5208 N.ar    1  UNL1       -0.2465
@<TRIPOS>BOND
     1    22    23    1
     2    23     1    1
     3     1     2   ar
     4     2     3   ar
     5     3     4   ar
     6     4     5   ar
     7     5     6   ar
     8     6    15    1
     9    15    16   ar
    10    16    17    1
    11    16    18   ar
    12    18    19   ar
    13    19    20   ar
    14    20    21    1
    15     4     7    2
    16     7     8    1
    17     8     9    1
    18     9    10    2
    19    10    11    1
    20    11    12    2
    21    11    13   am
    22    13    24    1
    23    24    25    1
    24    24    26    1
    25    26    27   ar
    26    27    28   ar
    27    28    29   ar
    28    29    30   ar
    29    30    31   ar
    30    13    14    1
    31     6     1   ar
    32    20    15   ar
    33    14     9    1
    34    14     3    2
    35    31    26   ar
