@<TRIPOS>MOLECULE
*****
 37 40 0 0 0
SMALL
GASTEIGER

@<TRIPOS>ATOM
      1 C          60.5048   88.3227   10.1848 C.3     1  UNL1        0.0706
      2 C          59.7262   88.9882    9.0890 C.3     1  UNL1        0.0082
      3 C          59.6528   88.3560    7.7306 C.3     1  UNL1        0.0005
      4 C          60.3580   87.0584    7.4682 C.3     1  UNL1        0.0005
      5 C          61.1366   86.3929    8.5640 C.3     1  UNL1        0.0095
      6 C          61.2100   87.0250    9.9223 C.3     1  UNL1        0.0840
      7 C          61.9886   86.3595   11.0182 C.2     1  UNL1        0.2261
      8 O          62.9066   87.1698   11.8847 O.2     1  UNL1       -0.2748
      9 N          61.8493   84.8837   11.2475 N.am    1  UNL1       -0.2814
     10 H          61.2468   84.3519   10.6788 H       1  UNL1        0.1549
     11 C          62.6279   84.2182   12.3434 C.ar    1  UNL1        0.0934
     12 C          62.6463   84.6281   13.7861 C.ar    1  UNL1        0.1115
     13 N          63.5546   83.6892   14.5233 N.ar    1  UNL1       -0.2459
     14 C          63.8653   83.7329   15.9901 C.3     1  UNL1        0.1538
     15 N          64.0976   82.6989   13.5361 N.ar    1  UNL1       -0.1632
     16 C          63.5248   83.0259   12.1889 C.ar    1  UNL1        0.1686
     17 C          63.8006   82.2897   10.9114 C.2     1  UNL1        0.2635
     18 N          63.0996   80.9949   10.6255 N.am    1  UNL1       -0.3240
     19 O          64.7777   82.8484    9.9197 O.2     1  UNL1       -0.2686
     20 H          62.4583   80.6282   11.2763 H       1  UNL1        0.1453
     21 H          63.2806   80.5118    9.7870 H       1  UNL1        0.1453
     22 C          60.5783   88.9547   11.5431 C.2     1  UNL1        0.1753
     23 O          59.4289   88.8178   12.4972 O.2     1  UNL1       -0.2913
     24 C          64.2465   91.2619   12.7559 C.ar    1  UNL1        0.0216
     25 C          63.4645   90.5013   13.7854 C.ar    1  UNL1        0.0018
     26 C          62.2418   89.7322   13.3812 C.ar    1  UNL1        0.0051
     27 C          61.8011   89.7238   11.9474 C.ar    1  UNL1        0.0621
     28 C          62.5830   90.4845   10.9179 C.ar    1  UNL1        0.1429
     29 F          62.1423   90.4761    9.4841 F       1  UNL1       -0.2041
     30 C          63.8058   91.2535   11.3222 C.ar    1  UNL1        0.0313
     31 C          68.6602   92.7236   15.2588 C.3     1  UNL1        0.0515
     32 C          67.4980   92.7028   14.3107 C.ar    1  UNL1        0.0535
     33 C          66.4260   91.6552   14.2527 C.ar    1  UNL1        0.0349
     34 C          65.4693   92.0310   13.1602 C.ar    1  UNL1        0.1019
     35 N          65.9500   93.3108   12.5430 N.ar    1  UNL1       -0.1730
     36 N          67.2038   93.7260   13.2540 N.ar    1  UNL1       -0.2798
     37 H          67.7396   94.5291   13.0609 H       1  UNL1        0.1886
@<TRIPOS>BOND
     1    31    32    1
     2    32    33   ar
     3    33    34   ar
     4    34    24    1
     5    24    25   ar
     6    25    26   ar
     7    26    27   ar
     8    27    22    1
     9    22    23    2
    10     1    22    1
    11     1     2    1
    12     2     3    1
    13     3     4    1
    14     4     5    1
    15     5     6    1
    16     6     7    1
    17     7     8    2
    18     7     9   am
    19     9    11    1
    20    11    12   ar
    21    12    13   ar
    22    13    14    1
    23    13    15   ar
    24    15    16   ar
    25    16    17    1
    26    17    18   am
    27    17    19    2
    28    27    28   ar
    29    28    29    1
    30    28    30   ar
    31    34    35   ar
    32    35    36   ar
    33    36    32   ar
    34    30    24   ar
    35     6     1    1
    36    16    11   ar
    37     9    10    1
    38    18    20    1
    39    18    21    1
    40    36    37    1
@<TRIPOS>MOLECULE
*****
 37 40 0 0 0
SMALL
GASTEIGER

@<TRIPOS>ATOM
      1 C          60.5838   88.3379    9.9953 C.3     1  UNL1        0.0706
      2 C          59.7457   88.9259    8.8990 C.3     1  UNL1        0.0082
      3 C          59.3730   88.0908    7.7099 C.3     1  UNL1        0.0005
      4 C          59.8384   86.6679    7.6171 C.3     1  UNL1        0.0005
      5 C          60.6765   86.0800    8.7134 C.3     1  UNL1        0.0095
      6 C          61.0492   86.9149    9.9025 C.3     1  UNL1        0.0840
      7 C          61.8874   86.3269   10.9987 C.2     1  UNL1        0.2261
      8 O          62.7629   87.2153   11.8321 O.2     1  UNL1       -0.2748
      9 N          61.8500   84.8507   11.2617 N.am    1  UNL1       -0.2814
     10 H          61.2754   84.2676   10.7148 H       1  UNL1        0.1549
     11 C          62.6881   84.2627   12.3580 C.ar    1  UNL1        0.0934
     12 C          62.7680   84.7610   13.7706 C.ar    1  UNL1        0.1115
     13 N          63.7227   83.8794   14.5198 N.ar    1  UNL1       -0.2459
     14 C          64.1009   84.0169   15.9649 C.3     1  UNL1        0.1538
     15 N          64.2330   82.8363   13.5703 N.ar    1  UNL1       -0.1632
     16 C          63.5936   83.0732   12.2342 C.ar    1  UNL1        0.1686
     17 C          63.8199   82.2629   10.9924 C.2     1  UNL1        0.2635
     18 N          63.0740   80.9775   10.7893 N.am    1  UNL1       -0.3240
     19 O          64.7922   82.7380    9.9536 O.2     1  UNL1       -0.2686
     20 H          62.4358   80.6657   11.4711 H       1  UNL1        0.1453
     21 H          63.2225   80.4457    9.9743 H       1  UNL1        0.1453
     22 C          60.9565   89.1728   11.1843 C.2     1  UNL1        0.1753
     23 O          60.1858   89.0412   12.4645 O.2     1  UNL1       -0.2913
     24 C          64.3866   92.0727   10.9112 C.ar    1  UNL1        0.0216
     25 C          63.5757   91.7532    9.6904 C.ar    1  UNL1        0.0018
     26 C          62.4324   90.7866    9.7815 C.ar    1  UNL1        0.0051
     27 C          62.0999   90.1395   11.0933 C.ar    1  UNL1        0.0621
     28 C          62.9109   90.4591   12.3140 C.ar    1  UNL1        0.1429
     29 F          62.5785   89.8120   13.6258 F       1  UNL1       -0.2041
     30 C          64.0542   91.4257   12.2230 C.ar    1  UNL1        0.0313
     31 C          67.1696   96.5117   10.2541 C.3     1  UNL1        0.0515
     32 C          66.8092   95.0798   10.5181 C.ar    1  UNL1        0.0535
     33 C          65.4250   94.5021   10.5046 C.ar    1  UNL1        0.0349
     34 C          65.5301   93.0394   10.8201 C.ar    1  UNL1        0.1019
     35 N          66.9792   92.7131   11.0287 N.ar    1  UNL1       -0.1730
     36 N          67.7698   93.9741   10.8420 N.ar    1  UNL1       -0.2798
     37 H          68.7475   94.0608   10.9186 H       1  UNL1        0.1886
@<TRIPOS>BOND
     1    31    32    1
     2    32    33   ar
     3    33    34   ar
     4    34    24    1
     5    24    25   ar
     6    25    26   ar
     7    26    27   ar
     8    27    22    1
     9    22    23    2
    10     1    22    1
    11     1     2    1
    12     2     3    1
    13     3     4    1
    14     4     5    1
    15     5     6    1
    16     6     7    1
    17     7     8    2
    18     7     9   am
    19     9    11    1
    20    11    12   ar
    21    12    13   ar
    22    13    14    1
    23    13    15   ar
    24    15    16   ar
    25    16    17    1
    26    17    18   am
    27    17    19    2
    28    27    28   ar
    29    28    29    1
    30    28    30   ar
    31    34    35   ar
    32    35    36   ar
    33    36    32   ar
    34    30    24   ar
    35     6     1    1
    36    16    11   ar
    37     9    10    1
    38    18    20    1
    39    18    21    1
    40    36    37    1
@<TRIPOS>MOLECULE
*****
 37 40 0 0 0
SMALL
GASTEIGER

@<TRIPOS>ATOM
      1 C          61.7695   88.1847   10.6358 C.3     1  UNL1        0.0706
      2 C          61.0342   89.2706    9.9076 C.3     1  UNL1        0.0082
      3 C          59.9998   88.9173    8.8803 C.3     1  UNL1        0.0005
      4 C          59.7007   87.4782    8.5813 C.3     1  UNL1        0.0005
      5 C          60.4360   86.3923    9.3095 C.3     1  UNL1        0.0095
      6 C          61.4704   86.7455   10.3367 C.3     1  UNL1        0.0840
      7 C          62.2056   85.6597   11.0649 C.2     1  UNL1        0.2261
      8 O          63.3296   84.9316   10.3891 O.2     1  UNL1       -0.2748
      9 N          61.8169   85.3019   12.4687 N.am    1  UNL1       -0.2814
     10 H          61.0792   85.7798   12.9122 H       1  UNL1        0.1549
     11 C          62.5522   84.2160   13.1969 C.ar    1  UNL1        0.0934
     12 C          62.6858   82.7899   12.7516 C.ar    1  UNL1        0.1115
     13 N          63.4992   82.0581   13.7778 N.ar    1  UNL1       -0.2459
     14 C          63.8770   80.6072   13.7323 C.3     1  UNL1        0.1538
     15 N          63.8683   83.0319   14.8573 N.ar    1  UNL1       -0.1632
     16 C          63.2830   84.3656   14.4983 C.ar    1  UNL1        0.1686
     17 C          63.4069   85.6273   15.3000 C.2     1  UNL1        0.2635
     18 N          64.4939   86.6119   14.9858 N.am    1  UNL1       -0.3240
     19 O          62.4435   85.9045   16.4160 O.2     1  UNL1       -0.2686
     20 H          65.1262   86.4301   14.2534 H       1  UNL1        0.1453
     21 H          64.5751   87.4400   15.5120 H       1  UNL1        0.1453
     22 C          62.8039   88.5380   11.6630 C.2     1  UNL1        0.1753
     23 O          63.1304   87.5707   12.7620 O.2     1  UNL1       -0.2913
     24 C          64.9275   92.4995   11.4477 C.ar    1  UNL1        0.0216
     25 C          64.1926   91.9764   10.2493 C.ar    1  UNL1        0.0018
     26 C          63.4847   90.6559   10.3211 C.ar    1  UNL1        0.0051
     27 C          63.5118   89.8585   11.5913 C.ar    1  UNL1        0.0621
     28 C          64.2467   90.3816   12.7897 C.ar    1  UNL1        0.1429
     29 F          64.2738   89.5842   14.0599 F       1  UNL1       -0.2041
     30 C          64.9546   91.7021   12.7179 C.ar    1  UNL1        0.0313
     31 C          67.2543   96.8550    9.5777 C.3     1  UNL1        0.0515
     32 C          66.7049   95.8220   10.5164 C.ar    1  UNL1        0.0535
     33 C          66.0194   94.5476   10.1217 C.ar    1  UNL1        0.0349
     34 C          65.6354   93.8200   11.3760 C.ar    1  UNL1        0.1019
     35 N          66.0837   94.6448   12.5459 N.ar    1  UNL1       -0.1730
     36 N          66.7446   95.8821   12.0147 N.ar    1  UNL1       -0.2798
     37 H          67.1358   96.6065   12.5546 H       1  UNL1        0.1886
@<TRIPOS>BOND
     1    31    32    1
     2    32    33   ar
     3    33    34   ar
     4    34    24    1
     5    24    25   ar
     6    25    26   ar
     7    26    27   ar
     8    27    22    1
     9    22    23    2
    10     1    22    1
    11     1     2    1
    12     2     3    1
    13     3     4    1
    14     4     5    1
    15     5     6    1
    16     6     7    1
    17     7     8    2
    18     7     9   am
    19     9    11    1
    20    11    12   ar
    21    12    13   ar
    22    13    14    1
    23    13    15   ar
    24    15    16   ar
    25    16    17    1
    26    17    18   am
    27    17    19    2
    28    27    28   ar
    29    28    29    1
    30    28    30   ar
    31    34    35   ar
    32    35    36   ar
    33    36    32   ar
    34    30    24   ar
    35     6     1    1
    36    16    11   ar
    37     9    10    1
    38    18    20    1
    39    18    21    1
    40    36    37    1
@<TRIPOS>MOLECULE
*****
 37 40 0 0 0
SMALL
GASTEIGER

@<TRIPOS>ATOM
      1 C          63.4288   87.9648   13.4855 C.3     1  UNL1        0.0706
      2 C          64.4200   87.6939   14.5783 C.3     1  UNL1        0.0082
      3 C          64.9229   86.2991   14.8058 C.3     1  UNL1        0.0005
      4 C          64.4347   85.1753   13.9407 C.3     1  UNL1        0.0005
      5 C          63.4435   85.4462   12.8479 C.3     1  UNL1        0.0095
      6 C          62.9406   86.8408   12.6203 C.3     1  UNL1        0.0840
      7 C          61.9494   87.1117   11.5275 C.2     1  UNL1        0.2261
      8 O          60.4954   87.2766   11.8576 O.2     1  UNL1       -0.2748
      9 N          62.4121   87.2176   10.1046 N.am    1  UNL1       -0.2814
     10 H          63.3663   87.1094    9.8879 H       1  UNL1        0.1549
     11 C          61.4209   87.4885    9.0118 C.ar    1  UNL1        0.0934
     12 C          60.5641   88.7129    8.8821 C.ar    1  UNL1        0.1115
     13 N          59.7262   88.5636    7.6470 N.ar    1  UNL1       -0.2459
     14 C          58.7251   89.5567    7.1354 C.3     1  UNL1        0.1538
     15 N          60.0650   87.2469    7.0133 N.ar    1  UNL1       -0.1632
     16 C          61.1124   86.5825    7.8568 C.ar    1  UNL1        0.1686
     17 C          61.7409   85.2465    7.5919 C.2     1  UNL1        0.2635
     18 N          61.3004   84.4311    6.4126 N.am    1  UNL1       -0.3240
     19 O          62.8100   84.7260    8.5063 O.2     1  UNL1       -0.2686
     20 H          60.5987   84.7726    5.8124 H       1  UNL1        0.1453
     21 H          61.7129   83.5543    6.2387 H       1  UNL1        0.1453
     22 C          62.9258   89.3594   13.2579 C.2     1  UNL1        0.1753
     23 O          61.5532   89.7468   13.7223 O.2     1  UNL1       -0.2913
     24 C          65.5348   92.3814   11.1816 C.ar    1  UNL1        0.0216
     25 C          64.3774   91.7640   10.4541 C.ar    1  UNL1        0.0018
     26 C          63.5078   90.7567   11.1462 C.ar    1  UNL1        0.0051
     27 C          63.7955   90.3668   12.5658 C.ar    1  UNL1        0.0621
     28 C          64.9529   90.9841   13.2932 C.ar    1  UNL1        0.1429
     29 F          65.2407   90.5942   14.7128 F       1  UNL1       -0.2041
     30 C          65.8226   91.9914   12.6012 C.ar    1  UNL1        0.0313
     31 C          67.2462   96.8552    8.9595 C.3     1  UNL1        0.0515
     32 C          67.1911   95.4451    9.4681 C.ar    1  UNL1        0.0535
     33 C          66.0231   94.7999   10.1533 C.ar    1  UNL1        0.0349
     34 C          66.4045   93.3887   10.4895 C.ar    1  UNL1        0.1019
     35 N          67.8083   93.1618   10.0122 N.ar    1  UNL1       -0.1730
     36 N          68.2945   94.4326    9.3809 N.ar    1  UNL1       -0.2798
     37 H          69.1819   94.5769    8.9798 H       1  UNL1        0.1886
@<TRIPOS>BOND
     1    31    32    1
     2    32    33   ar
     3    33    34   ar
     4    34    24    1
     5    24    25   ar
     6    25    26   ar
     7    26    27   ar
     8    27    22    1
     9    22    23    2
    10     1    22    1
    11     1     2    1
    12     2     3    1
    13     3     4    1
    14     4     5    1
    15     5     6    1
    16     6     7    1
    17     7     8    2
    18     7     9   am
    19     9    11    1
    20    11    12   ar
    21    12    13   ar
    22    13    14    1
    23    13    15   ar
    24    15    16   ar
    25    16    17    1
    26    17    18   am
    27    17    19    2
    28    27    28   ar
    29    28    29    1
    30    28    30   ar
    31    34    35   ar
    32    35    36   ar
    33    36    32   ar
    34    30    24   ar
    35     6     1    1
    36    16    11   ar
    37     9    10    1
    38    18    20    1
    39    18    21    1
    40    36    37    1
@<TRIPOS>MOLECULE
*****
 37 40 0 0 0
SMALL
GASTEIGER

@<TRIPOS>ATOM
      1 C          63.4522   86.3320   15.3599 C.3     1  UNL1        0.0706
      2 C          62.7660   85.2880   16.1900 C.3     1  UNL1        0.0082
      3 C          62.2666   85.6301   17.5626 C.3     1  UNL1        0.0005
      4 C          62.4535   87.0160   18.1048 C.3     1  UNL1        0.0005
      5 C          63.1396   88.0600   17.2746 C.3     1  UNL1        0.0095
      6 C          63.6390   87.7181   15.9022 C.3     1  UNL1        0.0840
      7 C          64.3252   88.7621   15.0720 C.2     1  UNL1        0.2261
      8 O          65.7357   88.5451   14.6099 O.2     1  UNL1       -0.2748
      9 N          63.6009   90.0230   14.7040 N.am    1  UNL1       -0.2814
     10 H          62.6752   90.1654   15.0073 H       1  UNL1        0.1549
     11 C          64.2871   91.0670   13.8738 C.ar    1  UNL1        0.0934
     12 C          64.1866   91.2157   12.3846 C.ar    1  UNL1        0.1115
     13 N          65.0317   92.3862   11.9774 N.ar    1  UNL1       -0.2459
     14 C          65.2207   92.8930   10.5783 C.3     1  UNL1        0.1538
     15 N          65.6545   92.9610   13.2151 N.ar    1  UNL1       -0.1632
     16 C          65.1943   92.1457   14.3870 C.ar    1  UNL1        0.1686
     17 C          65.5747   92.3697   15.8206 C.2     1  UNL1        0.2635
     18 N          67.0086   92.6135   16.1869 N.am    1  UNL1       -0.3240
     19 O          64.5209   92.3500   16.8880 O.2     1  UNL1       -0.2686
     20 H          67.7002   92.6265   15.4864 H       1  UNL1        0.1453
     21 H          67.2582   92.7606   17.1278 H       1  UNL1        0.1453
     22 C          63.9516   85.9900   13.9874 C.2     1  UNL1        0.1753
     23 O          65.2844   85.3228   13.8189 O.2     1  UNL1       -0.2913
     24 C          61.4512   86.9658   10.3755 C.ar    1  UNL1        0.0216
     25 C          62.1906   88.0562   11.0926 C.ar    1  UNL1        0.0018
     26 C          63.0240   87.7310   12.2965 C.ar    1  UNL1        0.0051
     27 C          63.1181   86.3153   12.7834 C.ar    1  UNL1        0.0621
     28 C          62.3787   85.2249   12.0663 C.ar    1  UNL1        0.1429
     29 F          62.4728   83.8092   12.5531 F       1  UNL1       -0.2041
     30 C          61.5453   85.5501   10.8623 C.ar    1  UNL1        0.0313
     31 C          59.0544   89.6308    6.4980 C.3     1  UNL1        0.0515
     32 C          59.5161   88.5160    7.3892 C.ar    1  UNL1        0.0535
     33 C          60.4205   88.6544    8.5778 C.ar    1  UNL1        0.0349
     34 C          60.6177   87.2910    9.1714 C.ar    1  UNL1        0.1019
     35 N          59.8352   86.3100    8.3497 N.ar    1  UNL1       -0.1730
     36 N          59.1543   87.0671    7.2482 N.ar    1  UNL1       -0.2798
     37 H          58.5722   86.6808    6.5545 H       1  UNL1        0.1886
@<TRIPOS>BOND
     1    31    32    1
     2    32    33   ar
     3    33    34   ar
     4    34    24    1
     5    24    25   ar
     6    25    26   ar
     7    26    27   ar
     8    27    22    1
     9    22    23    2
    10     1    22    1
    11     1     2    1
    12     2     3    1
    13     3     4    1
    14     4     5    1
    15     5     6    1
    16     6     7    1
    17     7     8    2
    18     7     9   am
    19     9    11    1
    20    11    12   ar
    21    12    13   ar
    22    13    14    1
    23    13    15   ar
    24    15    16   ar
    25    16    17    1
    26    17    18   am
    27    17    19    2
    28    27    28   ar
    29    28    29    1
    30    28    30   ar
    31    34    35   ar
    32    35    36   ar
    33    36    32   ar
    34    30    24   ar
    35     6     1    1
    36    16    11   ar
    37     9    10    1
    38    18    20    1
    39    18    21    1
    40    36    37    1
@<TRIPOS>MOLECULE
*****
 37 40 0 0 0
SMALL
GASTEIGER

@<TRIPOS>ATOM
      1 C          62.1978   88.6871   11.7785 C.3     1  UNL1        0.0706
      2 C          61.1505   88.0507   10.9136 C.3     1  UNL1        0.0082
      3 C          60.1811   88.9086   10.1555 C.3     1  UNL1        0.0005
      4 C          60.2591   90.4027   10.2625 C.3     1  UNL1        0.0005
      5 C          61.3064   91.0391   11.1274 C.3     1  UNL1        0.0095
      6 C          62.2758   90.1813   11.8854 C.3     1  UNL1        0.0840
      7 C          63.3231   90.8177   12.7504 C.2     1  UNL1        0.2261
      8 O          63.0985   90.9470   14.2279 O.2     1  UNL1       -0.2748
      9 N          64.5950   91.3248   12.1379 N.am    1  UNL1       -0.2814
     10 H          64.7424   91.2399   11.1682 H       1  UNL1        0.1549
     11 C          65.6423   91.9612   13.0028 C.ar    1  UNL1        0.0934
     12 C          66.1853   91.4032   14.2849 C.ar    1  UNL1        0.1115
     13 N          67.2091   92.3644   14.8120 N.ar    1  UNL1       -0.2459
     14 C          68.0037   92.2020   16.0739 C.3     1  UNL1        0.1538
     15 N          67.2989   93.5165   13.8557 N.ar    1  UNL1       -0.1632
     16 C          66.3305   93.2673   12.7376 C.ar    1  UNL1        0.1686
     17 C          66.0922   94.1664   11.5608 C.2     1  UNL1        0.2635
     18 N          65.9936   95.6500   11.7582 N.am    1  UNL1       -0.3240
     19 O          65.9525   93.5818   10.1864 O.2     1  UNL1       -0.2686
     20 H          66.0852   96.0337   12.6602 H       1  UNL1        0.1453
     21 H          65.8372   96.2401   10.9858 H       1  UNL1        0.1453
     22 C          63.1672   87.8294   12.5365 C.2     1  UNL1        0.1753
     23 O          64.2226   88.4660   13.3914 O.2     1  UNL1       -0.2913
     24 C          62.9092   83.3462   12.2457 C.ar    1  UNL1        0.0216
     25 C          62.5152   84.1976   11.0753 C.ar    1  UNL1        0.0018
     26 C          62.6012   85.6920   11.1723 C.ar    1  UNL1        0.0051
     27 C          63.0812   86.3350   12.4396 C.ar    1  UNL1        0.0621
     28 C          63.4752   85.4836   13.6100 C.ar    1  UNL1        0.1429
     29 F          63.9552   86.1266   14.8773 F       1  UNL1       -0.2041
     30 C          63.3892   83.9892   13.5131 C.ar    1  UNL1        0.0313
     31 C          62.8686   78.4334   10.3110 C.3     1  UNL1        0.0515
     32 C          62.8046   79.5936   11.2595 C.ar    1  UNL1        0.0535
     33 C          62.9566   81.0405   10.8942 C.ar    1  UNL1        0.0349
     34 C          62.8232   81.8518   12.1488 C.ar    1  UNL1        0.1019
     35 N          62.5887   80.9063   13.2895 N.ar    1  UNL1       -0.1730
     36 N          62.5772   79.5107   12.7399 N.ar    1  UNL1       -0.2798
     37 H          62.4438   78.6852   13.2595 H       1  UNL1        0.1886
@<TRIPOS>BOND
     1    31    32    1
     2    32    33   ar
     3    33    34   ar
     4    34    24    1
     5    24    25   ar
     6    25    26   ar
     7    26    27   ar
     8    27    22    1
     9    22    23    2
    10     1    22    1
    11     1     2    1
    12     2     3    1
    13     3     4    1
    14     4     5    1
    15     5     6    1
    16     6     7    1
    17     7     8    2
    18     7     9   am
    19     9    11    1
    20    11    12   ar
    21    12    13   ar
    22    13    14    1
    23    13    15   ar
    24    15    16   ar
    25    16    17    1
    26    17    18   am
    27    17    19    2
    28    27    28   ar
    29    28    29    1
    30    28    30   ar
    31    34    35   ar
    32    35    36   ar
    33    36    32   ar
    34    30    24   ar
    35     6     1    1
    36    16    11   ar
    37     9    10    1
    38    18    20    1
    39    18    21    1
    40    36    37    1
@<TRIPOS>MOLECULE
*****
 37 40 0 0 0
SMALL
GASTEIGER

@<TRIPOS>ATOM
      1 C          63.8043   86.4393   15.7279 C.3     1  UNL1        0.0706
      2 C          63.2581   85.4880   16.7511 C.3     1  UNL1        0.0082
      3 C          62.5190   86.0145   17.9455 C.3     1  UNL1        0.0005
      4 C          62.3261   87.4921   18.1167 C.3     1  UNL1        0.0005
      5 C          62.8722   88.4433   17.0936 C.3     1  UNL1        0.0095
      6 C          63.6113   87.9170   15.8992 C.3     1  UNL1        0.0840
      7 C          64.1575   88.8682   14.8760 C.2     1  UNL1        0.2261
      8 O          65.6239   88.8690   14.5601 O.2     1  UNL1       -0.2748
      9 N          63.2374   89.8185   14.1689 N.am    1  UNL1       -0.2814
     10 H          62.2749   89.8180   14.3762 H       1  UNL1        0.1549
     11 C          63.7835   90.7698   13.1457 C.ar    1  UNL1        0.0934
     12 C          65.0136   91.6150   13.2955 C.ar    1  UNL1        0.1115
     13 N          65.1858   92.4104   12.0355 N.ar    1  UNL1       -0.2459
     14 C          66.2882   93.3878   11.7536 C.3     1  UNL1        0.1538
     15 N          64.0621   92.0568   11.1069 N.ar    1  UNL1       -0.1632
     16 C          63.1955   91.0428   11.7931 C.ar    1  UNL1        0.1686
     17 C          61.9580   90.4126   11.2261 C.2     1  UNL1        0.2635
     18 N          61.6970   90.4679    9.7501 N.am    1  UNL1       -0.3240
     19 O          60.9815   89.7270   12.1352 O.2     1  UNL1       -0.2686
     20 H          62.3378   90.9178    9.1534 H       1  UNL1        0.1453
     21 H          60.8848   90.0542    9.3780 H       1  UNL1        0.1453
     22 C          64.5434   85.9129   14.5335 C.2     1  UNL1        0.1753
     23 O          65.9772   85.4920   14.6643 O.2     1  UNL1       -0.2913
     24 C          62.4594   85.5965   10.5578 C.ar    1  UNL1        0.0216
     25 C          62.5973   86.9312   11.2281 C.ar    1  UNL1        0.0018
     26 C          63.2919   87.0367   12.5533 C.ar    1  UNL1        0.0051
     27 C          63.8487   85.8074   13.2082 C.ar    1  UNL1        0.0621
     28 C          63.7108   84.4726   12.5379 C.ar    1  UNL1        0.1429
     29 F          64.2676   83.2433   13.1927 F       1  UNL1       -0.2041
     30 C          63.0161   84.3672   11.2126 C.ar    1  UNL1        0.0313
     31 C          61.4336   84.4762    5.5007 C.3     1  UNL1        0.0515
     32 C          61.2932   84.9760    6.9080 C.ar    1  UNL1        0.0535
     33 C          62.3231   84.8585    7.9922 C.ar    1  UNL1        0.0349
     34 C          61.7647   85.4910    9.2324 C.ar    1  UNL1        0.1019
     35 N          60.3897   85.9994    8.9147 N.ar    1  UNL1       -0.1730
     36 N          60.0983   85.6812    7.4782 N.ar    1  UNL1       -0.2798
     37 H          59.2685   85.8972    6.9944 H       1  UNL1        0.1886
@<TRIPOS>BOND
     1    31    32    1
     2    32    33   ar
     3    33    34   ar
     4    34    24    1
     5    24    25   ar
     6    25    26   ar
     7    26    27   ar
     8    27    22    1
     9    22    23    2
    10     1    22    1
    11     1     2    1
    12     2     3    1
    13     3     4    1
    14     4     5    1
    15     5     6    1
    16     6     7    1
    17     7     8    2
    18     7     9   am
    19     9    11    1
    20    11    12   ar
    21    12    13   ar
    22    13    14    1
    23    13    15   ar
    24    15    16   ar
    25    16    17    1
    26    17    18   am
    27    17    19    2
    28    27    28   ar
    29    28    29    1
    30    28    30   ar
    31    34    35   ar
    32    35    36   ar
    33    36    32   ar
    34    30    24   ar
    35     6     1    1
    36    16    11   ar
    37     9    10    1
    38    18    20    1
    39    18    21    1
    40    36    37    1
@<TRIPOS>MOLECULE
*****
 37 40 0 0 0
SMALL
GASTEIGER

@<TRIPOS>ATOM
      1 C          63.4637   88.0234   13.3280 C.3     1  UNL1        0.0706
      2 C          64.2774   88.3533   14.5442 C.3     1  UNL1        0.0082
      3 C          64.9767   87.2609   15.2978 C.3     1  UNL1        0.0005
      4 C          64.8621   85.8387   14.8352 C.3     1  UNL1        0.0005
      5 C          64.0484   85.5087   13.6191 C.3     1  UNL1        0.0095
      6 C          63.3492   86.6010   12.8655 C.3     1  UNL1        0.0840
      7 C          62.5355   86.2711   11.6494 C.2     1  UNL1        0.2261
      8 O          61.1801   85.6465   11.8007 O.2     1  UNL1       -0.2748
      9 N          63.0771   86.5657   10.2820 N.am    1  UNL1       -0.2814
     10 H          63.9666   86.9757   10.1827 H       1  UNL1        0.1549
     11 C          62.2633   86.2358    9.0658 C.ar    1  UNL1        0.0934
     12 C          62.5830   85.1781    8.0514 C.ar    1  UNL1        0.1115
     13 N          61.5043   85.1942    7.0092 N.ar    1  UNL1       -0.2459
     14 C          61.4257   84.2997    5.8077 C.3     1  UNL1        0.1538
     15 N          60.5179   86.2619    7.3795 N.ar    1  UNL1       -0.1632
     16 C          60.9871   86.9056    8.6506 C.ar    1  UNL1        0.1686
     17 C          60.3004   88.0230    9.3785 C.2     1  UNL1        0.2635
     18 N          59.4534   87.7264   10.5804 N.am    1  UNL1       -0.3240
     19 O          60.4608   89.4372    8.9046 O.2     1  UNL1       -0.2686
     20 H          59.3481   86.7983   10.8915 H       1  UNL1        0.1453
     21 H          59.0028   88.4599   11.0581 H       1  UNL1        0.1453
     22 C          62.7645   89.1157   12.5745 C.2     1  UNL1        0.1753
     23 O          61.3033   88.9924   12.2586 O.2     1  UNL1       -0.2913
     24 C          65.0503   92.7626   11.2611 C.ar    1  UNL1        0.0216
     25 C          64.3206   91.9301   10.2490 C.ar    1  UNL1        0.0018
     26 C          63.5587   90.7145   10.6868 C.ar    1  UNL1        0.0051
     27 C          63.5265   90.3314   12.1367 C.ar    1  UNL1        0.0621
     28 C          64.2562   91.1639   13.1488 C.ar    1  UNL1        0.1429
     29 F          64.2240   90.7808   14.5987 F       1  UNL1       -0.2041
     30 C          65.0181   92.3795   12.7110 C.ar    1  UNL1        0.0313
     31 C          67.7666   96.1917    8.3040 C.3     1  UNL1        0.0515
     32 C          67.0608   95.5545    9.4641 C.ar    1  UNL1        0.0535
     33 C          66.3831   94.2163    9.4568 C.ar    1  UNL1        0.0349
     34 C          65.8123   93.9783   10.8234 C.ar    1  UNL1        0.1019
     35 N          66.1372   95.1694   11.6753 N.ar    1  UNL1       -0.1730
     36 N          66.9088   96.1435   10.8353 N.ar    1  UNL1       -0.2798
     37 H          67.2548   97.0162   11.1318 H       1  UNL1        0.1886
@<TRIPOS>BOND
     1    31    32    1
     2    32    33   ar
     3    33    34   ar
     4    34    24    1
     5    24    25   ar
     6    25    26   ar
     7    26    27   ar
     8    27    22    1
     9    22    23    2
    10     1    22    1
    11     1     2    1
    12     2     3    1
    13     3     4    1
    14     4     5    1
    15     5     6    1
    16     6     7    1
    17     7     8    2
    18     7     9   am
    19     9    11    1
    20    11    12   ar
    21    12    13   ar
    22    13    14    1
    23    13    15   ar
    24    15    16   ar
    25    16    17    1
    26    17    18   am
    27    17    19    2
    28    27    28   ar
    29    28    29    1
    30    28    30   ar
    31    34    35   ar
    32    35    36   ar
    33    36    32   ar
    34    30    24   ar
    35     6     1    1
    36    16    11   ar
    37     9    10    1
    38    18    20    1
    39    18    21    1
    40    36    37    1
@<TRIPOS>MOLECULE
*****
 37 40 0 0 0
SMALL
GASTEIGER

@<TRIPOS>ATOM
      1 C          60.2726   88.4556    9.9564 C.3     1  UNL1        0.0706
      2 C          59.7502   89.2669    8.8081 C.3     1  UNL1        0.0082
      3 C          59.6422   88.6529    7.4437 C.3     1  UNL1        0.0005
      4 C          60.0565   87.2275    7.2278 C.3     1  UNL1        0.0005
      5 C          60.5789   86.4162    8.3762 C.3     1  UNL1        0.0095
      6 C          60.6869   87.0301    9.7405 C.3     1  UNL1        0.0840
      7 C          61.2093   86.2188   10.8889 C.2     1  UNL1        0.2261
      8 O          60.6428   86.4138   12.2640 O.2     1  UNL1       -0.2748
      9 N          62.2982   85.2123   10.6621 N.am    1  UNL1       -0.2814
     10 H          62.6700   85.0843    9.7595 H       1  UNL1        0.1549
     11 C          62.8206   84.4009   11.8105 C.ar    1  UNL1        0.0934
     12 C          62.8280   82.9037   11.9009 C.ar    1  UNL1        0.1115
     13 N          63.4393   82.5217   13.2164 N.ar    1  UNL1       -0.2459
     14 C          63.6442   81.1240   13.7206 C.3     1  UNL1        0.1538
     15 N          63.8096   83.7829   13.9390 N.ar    1  UNL1       -0.1632
     16 C          63.4272   84.9443   13.0701 C.ar    1  UNL1        0.1686
     17 C          63.6180   86.3945   13.4025 C.2     1  UNL1        0.2635
     18 N          63.4566   87.4362   12.3354 N.am    1  UNL1       -0.3240
     19 O          63.9703   86.8031   14.8023 O.2     1  UNL1       -0.2686
     20 H          63.2254   87.1681   11.4168 H       1  UNL1        0.1453
     21 H          63.5819   88.3880   12.5537 H       1  UNL1        0.1453
     22 C          60.3807   89.0695   11.3207 C.2     1  UNL1        0.1753
     23 O          59.2495   88.9332   12.2963 O.2     1  UNL1       -0.2913
     24 C          64.0985   91.3207   12.4869 C.ar    1  UNL1        0.0216
     25 C          63.7553   91.1388   11.0381 C.ar    1  UNL1        0.0018
     26 C          62.5161   90.3885   10.6494 C.ar    1  UNL1        0.0051
     27 C          61.6200   89.8199   11.7095 C.ar    1  UNL1        0.0621
     28 C          61.9632   90.0018   13.1583 C.ar    1  UNL1        0.1429
     29 F          61.0672   89.4332   14.2184 F       1  UNL1       -0.2041
     30 C          63.2025   90.7521   13.5470 C.ar    1  UNL1        0.0313
     31 C          68.5201   92.7609   14.9881 C.3     1  UNL1        0.0515
     32 C          67.3703   92.7330   14.0253 C.ar    1  UNL1        0.0535
     33 C          66.2691   91.7150   13.9964 C.ar    1  UNL1        0.0349
     34 C          65.3379   92.0711   12.8756 C.ar    1  UNL1        0.1019
     35 N          65.8635   93.3092   12.2119 N.ar    1  UNL1       -0.1730
     36 N          67.1196   93.7184   12.9224 N.ar    1  UNL1       -0.2798
     37 H          67.6810   94.4969   12.7034 H       1  UNL1        0.1886
@<TRIPOS>BOND
     1    31    32    1
     2    32    33   ar
     3    33    34   ar
     4    34    24    1
     5    24    25   ar
     6    25    26   ar
     7    26    27   ar
     8    27    22    1
     9    22    23    2
    10     1    22    1
    11     1     2    1
    12     2     3    1
    13     3     4    1
    14     4     5    1
    15     5     6    1
    16     6     7    1
    17     7     8    2
    18     7     9   am
    19     9    11    1
    20    11    12   ar
    21    12    13   ar
    22    13    14    1
    23    13    15   ar
    24    15    16   ar
    25    16    17    1
    26    17    18   am
    27    17    19    2
    28    27    28   ar
    29    28    29    1
    30    28    30   ar
    31    34    35   ar
    32    35    36   ar
    33    36    32   ar
    34    30    24   ar
    35     6     1    1
    36    16    11   ar
    37     9    10    1
    38    18    20    1
    39    18    21    1
    40    36    37    1
