@<TRIPOS>MOLECULE
*****
 30 35 0 0 0
SMALL
GASTEIGER

@<TRIPOS>ATOM
      1 C          64.3545   89.3205   15.1573 C.3     1  UNL1        0.0493
      2 C          64.6764   88.1184   14.3199 C.3     1  UNL1        0.0238
      3 C          64.1299   86.7733   14.6972 C.3     1  UNL1        0.0730
      4 N          63.2614   86.6306   15.9119 N.3     1  UNL1       -0.2623
      5 C          62.9396   87.8328   16.7493 C.3     1  UNL1        0.0730
      6 C          63.4861   89.1778   16.3720 C.3     1  UNL1        0.0238
      7 C          65.7072   92.5459   13.4743 C.ar    1  UNL1        0.1224
      8 C          65.7770   92.9244   14.9241 C.ar    1  UNL1        0.0587
      9 S          65.2787   91.7621   15.7310 S.2     1  UNL1       -0.0701
     10 C          64.9010   90.6655   14.7799 C.ar    1  UNL1        0.0880
     11 N          65.1659   91.1499   13.3851 N.ar    1  UNL1       -0.2396
     12 C          67.5618   95.6306    8.1218 C.ar    1  UNL1        0.0002
     13 C          67.2793   96.8555    8.9401 C.ar    1  UNL1        0.0031
     14 C          66.7906   96.7183   10.3516 C.ar    1  UNL1        0.0375
     15 C          66.5844   95.3562   10.9448 C.ar    1  UNL1        0.1454
     16 O          66.1156   94.9114   12.2985 O.2     1  UNL1       -0.4520
     17 C          66.1084   93.4115   12.3168 C.ar    1  UNL1        0.1633
     18 C          66.5728   92.9293   10.9745 C.ar    1  UNL1        0.0421
     19 C          66.8670   94.1312   10.1266 C.ar    1  UNL1        0.0376
     20 C          67.3557   94.2684    8.7151 C.ar    1  UNL1        0.0031
     21 C          62.7149   85.2856   16.2893 C.3     1  UNL1        0.1976
     22 C          62.7053   84.1714   15.2851 C.2     1  UNL1        0.3676
     23 N          62.6972   82.7040   15.5964 N.2     1  UNL1       -0.0320
     24 C          62.6891   81.9546   14.2970 C.2     1  UNL1        0.2508
     25 C          62.6793   80.4876   13.9845 C.2     1  UNL1        0.1485
     26 N          62.6725   80.0247   12.5577 N.2     1  UNL1       -0.2425
     27 C          62.6756   81.0289   11.4435 C.2     1  UNL1        0.0815
     28 C          62.6854   82.4959   11.7560 C.3     1  UNL1        0.1247
     29 C          62.6922   82.9588   13.1827 C.2     1  UNL1        0.2207
     30 N          62.7022   84.3288   13.7934 N.2     1  UNL1       -0.0374
@<TRIPOS>BOND
     1    12    13   ar
     2    13    14   ar
     3    14    15   ar
     4    15    16   ar
     5    16    17   ar
     6    17     7    1
     7     7     8   ar
     8     8     9   ar
     9     9    10   ar
    10    10     1    1
    11     1     2    1
    12     2     3    1
    13     3     4    1
    14     4    21    1
    15    21    22    1
    16    22    23    2
    17    23    24    1
    18    24    25    2
    19    25    26    1
    20    26    27    2
    21    27    28    1
    22    28    29    1
    23    29    30    2
    24     4     5    1
    25     5     6    1
    26    10    11   ar
    27    17    18   ar
    28    18    19   ar
    29    19    20   ar
    30    20    12   ar
    31    19    15   ar
    32    11     7   ar
    33     6     1    1
    34    30    22    1
    35    29    24    1
@<TRIPOS>MOLECULE
*****
 30 35 0 0 0
SMALL
GASTEIGER

@<TRIPOS>ATOM
      1 C          64.4016   89.4663   15.0949 C.3     1  UNL1        0.0493
      2 C          64.6831   88.2507   14.2624 C.3     1  UNL1        0.0238
      3 C          64.1335   86.9167   14.6730 C.3     1  UNL1        0.0730
      4 N          63.3023   86.7984   15.9160 N.3     1  UNL1       -0.2623
      5 C          63.0207   88.0140   16.7485 C.3     1  UNL1        0.0730
      6 C          63.5704   89.3480   16.3380 C.3     1  UNL1        0.0238
      7 C          65.7568   92.6477   13.3323 C.ar    1  UNL1        0.1224
      8 C          65.8371   93.0581   14.7729 C.ar    1  UNL1        0.0587
      9 S          65.3391   91.9162   15.6085 S.2     1  UNL1       -0.0701
     10 C          64.9512   90.8002   14.6844 C.ar    1  UNL1        0.0880
     11 N          65.2093   91.2523   13.2775 N.ar    1  UNL1       -0.2396
     12 C          67.3282   96.8485    8.6968 C.ar    1  UNL1        0.0002
     13 C          67.5805   95.6045    7.8976 C.ar    1  UNL1        0.0031
     14 C          67.3625   94.2568    8.5190 C.ar    1  UNL1        0.0375
     15 C          66.8921   94.1531    9.9396 C.ar    1  UNL1        0.1454
     16 O          66.5921   92.9718   10.8139 O.2     1  UNL1       -0.4520
     17 C          66.1543   93.4857   12.1534 C.ar    1  UNL1        0.1633
     18 C          66.1837   94.9847   12.1069 C.ar    1  UNL1        0.0421
     19 C          66.6398   95.3971   10.7387 C.ar    1  UNL1        0.0376
     20 C          66.8578   96.7448   10.1173 C.ar    1  UNL1        0.0031
     21 C          62.7527   85.4645   16.3266 C.3     1  UNL1        0.1976
     22 C          62.7376   84.3266   15.3494 C.2     1  UNL1        0.3676
     23 N          62.6798   84.4480   13.8554 N.2     1  UNL1       -0.0320
     24 C          62.6842   83.0639   13.2773 C.2     1  UNL1        0.2508
     25 C          62.6409   82.5669   11.8628 C.2     1  UNL1        0.1485
     26 N          62.6581   81.0929   11.5848 N.2     1  UNL1       -0.2425
     27 C          62.7187   80.1161   12.7215 C.2     1  UNL1        0.0815
     28 C          62.7620   80.6131   14.1360 C.3     1  UNL1        0.1247
     29 C          62.7448   82.0870   14.4140 C.2     1  UNL1        0.2207
     30 N          62.7778   82.8674   15.6946 N.2     1  UNL1       -0.0374
@<TRIPOS>BOND
     1    12    13   ar
     2    13    14   ar
     3    14    15   ar
     4    15    16   ar
     5    16    17   ar
     6    17     7    1
     7     7     8   ar
     8     8     9   ar
     9     9    10   ar
    10    10     1    1
    11     1     2    1
    12     2     3    1
    13     3     4    1
    14     4    21    1
    15    21    22    1
    16    22    23    2
    17    23    24    1
    18    24    25    2
    19    25    26    1
    20    26    27    2
    21    27    28    1
    22    28    29    1
    23    29    30    2
    24     4     5    1
    25     5     6    1
    26    10    11   ar
    27    17    18   ar
    28    18    19   ar
    29    19    20   ar
    30    20    12   ar
    31    19    15   ar
    32    11     7   ar
    33     6     1    1
    34    30    22    1
    35    29    24    1
@<TRIPOS>MOLECULE
*****
 30 35 0 0 0
SMALL
GASTEIGER

@<TRIPOS>ATOM
      1 C          64.7589   90.2316   14.6608 C.3     1  UNL1        0.0493
      2 C          64.6967   90.6892   13.2336 C.3     1  UNL1        0.0238
      3 C          65.2665   92.0221   12.8479 C.3     1  UNL1        0.0730
      4 N          65.8986   92.8973   13.8894 N.3     1  UNL1       -0.2623
      5 C          65.9607   92.4396   15.3165 C.3     1  UNL1        0.0730
      6 C          65.3909   91.1068   15.7022 C.3     1  UNL1        0.0238
      7 C          63.5132   86.5689   14.9733 C.ar    1  UNL1        0.1224
      8 C          63.1111   87.1264   16.3066 C.ar    1  UNL1        0.0587
      9 S          63.5289   88.5664   16.3517 S.2     1  UNL1       -0.0701
     10 C          64.1890   88.8987   15.0464 C.ar    1  UNL1        0.0880
     11 N          64.1793   87.6640   14.1945 N.ar    1  UNL1       -0.2396
     12 C          63.0913   80.6504   12.4438 C.ar    1  UNL1        0.0002
     13 C          62.0155   80.4767   13.4744 C.ar    1  UNL1        0.0031
     14 C          61.6721   81.6075   14.3982 C.ar    1  UNL1        0.0375
     15 C          62.4047   82.9121   14.2913 C.ar    1  UNL1        0.1454
     16 O          62.2859   84.1957   15.0583 O.2     1  UNL1       -0.4520
     17 C          63.2884   85.1627   14.5017 C.ar    1  UNL1        0.1633
     18 C          64.0267   84.4768   13.3906 C.ar    1  UNL1        0.0421
     19 C          63.4805   83.0858   13.2606 C.ar    1  UNL1        0.0376
     20 C          63.8238   81.9550   12.3369 C.ar    1  UNL1        0.0031
     21 C          66.4684   94.2302   13.5037 C.3     1  UNL1        0.1976
     22 C          66.4364   94.6733   12.0710 C.2     1  UNL1        0.3676
     23 N          67.1715   94.0302   10.9325 N.2     1  UNL1       -0.0320
     24 C          66.8530   94.7968    9.6832 C.2     1  UNL1        0.2508
     25 C          67.2913   94.6222    8.2593 C.2     1  UNL1        0.1485
     26 N          66.7976   95.5644    7.2017 N.2     1  UNL1       -0.2425
     27 C          65.8657   96.6812    7.5680 C.2     1  UNL1        0.0815
     28 C          65.4275   96.8559    8.9919 C.3     1  UNL1        0.1247
     29 C          65.9211   95.9137   10.0494 C.2     1  UNL1        0.2207
     30 N          65.6636   95.8373   11.5252 N.2     1  UNL1       -0.0374
@<TRIPOS>BOND
     1    12    13   ar
     2    13    14   ar
     3    14    15   ar
     4    15    16   ar
     5    16    17   ar
     6    17     7    1
     7     7     8   ar
     8     8     9   ar
     9     9    10   ar
    10    10     1    1
    11     1     2    1
    12     2     3    1
    13     3     4    1
    14     4    21    1
    15    21    22    1
    16    22    23    2
    17    23    24    1
    18    24    25    2
    19    25    26    1
    20    26    27    2
    21    27    28    1
    22    28    29    1
    23    29    30    2
    24     4     5    1
    25     5     6    1
    26    10    11   ar
    27    17    18   ar
    28    18    19   ar
    29    19    20   ar
    30    20    12   ar
    31    19    15   ar
    32    11     7   ar
    33     6     1    1
    34    30    22    1
    35    29    24    1
@<TRIPOS>MOLECULE
*****
 30 35 0 0 0
SMALL
GASTEIGER

@<TRIPOS>ATOM
      1 C          59.7435   89.6405    7.3774 C.3     1  UNL1        0.0493
      2 C          60.4425   90.2344    8.5642 C.3     1  UNL1        0.0238
      3 C          60.6386   89.4162    9.8061 C.3     1  UNL1        0.0730
      4 N          60.1357   88.0041    9.8610 N.3     1  UNL1       -0.2623
      5 C          59.4367   87.4101    8.6741 C.3     1  UNL1        0.0730
      6 C          59.2406   88.2284    7.4323 C.3     1  UNL1        0.0238
      7 C          59.9872   91.7262    4.1132 C.ar    1  UNL1        0.1224
      8 C          58.5040   91.7094    4.3362 C.ar    1  UNL1        0.0587
      9 S          58.2322   90.9259    5.5862 S.2     1  UNL1       -0.0701
     10 C          59.5474   90.4587    6.1356 C.ar    1  UNL1        0.0880
     11 N          60.6321   90.9533    5.2251 N.ar    1  UNL1       -0.2396
     12 C          63.6865   94.3263   -0.4868 C.ar    1  UNL1        0.0002
     13 C          62.3797   94.8654   -0.9884 C.ar    1  UNL1        0.0031
     14 C          61.1087   94.5530   -0.2556 C.ar    1  UNL1        0.0375
     15 C          61.1445   93.7016    0.9788 C.ar    1  UNL1        0.1454
     16 O          60.0624   93.2292    1.9039 O.2     1  UNL1       -0.4520
     17 C          60.7005   92.3981    2.9774 C.ar    1  UNL1        0.1633
     18 C          62.1768   92.3569    2.7156 C.ar    1  UNL1        0.0421
     19 C          62.4512   93.1626    1.4804 C.ar    1  UNL1        0.0376
     20 C          63.7223   93.4749    0.7476 C.ar    1  UNL1        0.0031
     21 C          60.3318   87.1858   11.1028 C.3     1  UNL1        0.1976
     22 C          61.3741   86.1076   11.1337 C.2     1  UNL1        0.3676
     23 N          62.0411   85.4916    9.9397 N.2     1  UNL1       -0.0320
     24 C          63.0117   84.4594   10.4321 C.2     1  UNL1        0.2508
     25 C          63.9479   83.5366    9.7097 C.2     1  UNL1        0.1485
     26 N          64.8170   82.5918   10.4856 N.2     1  UNL1       -0.2425
     27 C          64.7499   82.5699   11.9839 C.2     1  UNL1        0.0815
     28 C          63.8137   83.4927   12.7063 C.3     1  UNL1        0.1247
     29 C          62.9446   84.4374   11.9304 C.2     1  UNL1        0.2207
     30 N          61.9325   85.4561   12.3640 N.2     1  UNL1       -0.0374
@<TRIPOS>BOND
     1    12    13   ar
     2    13    14   ar
     3    14    15   ar
     4    15    16   ar
     5    16    17   ar
     6    17     7    1
     7     7     8   ar
     8     8     9   ar
     9     9    10   ar
    10    10     1    1
    11     1     2    1
    12     2     3    1
    13     3     4    1
    14     4    21    1
    15    21    22    1
    16    22    23    2
    17    23    24    1
    18    24    25    2
    19    25    26    1
    20    26    27    2
    21    27    28    1
    22    28    29    1
    23    29    30    2
    24     4     5    1
    25     5     6    1
    26    10    11   ar
    27    17    18   ar
    28    18    19   ar
    29    19    20   ar
    30    20    12   ar
    31    19    15   ar
    32    11     7   ar
    33     6     1    1
    34    30    22    1
    35    29    24    1
