@<TRIPOS>MOLECULE
*****
 38 42 0 0 0
SMALL
GASTEIGER

@<TRIPOS>ATOM
      1 C          63.1225   87.5380   17.3023 C.3     1  UNL1        0.0666
      2 S          62.4515   88.6486   16.5500 S.3     1  UNL1       -0.0756
      3 C          63.8596   88.8332   13.6119 C.3     1  UNL1        0.1340
      4 N          63.9089   89.8844   14.6808 N.ar    1  UNL1       -0.2884
      5 C          63.2616   89.7995   16.0313 C.ar    1  UNL1        0.1932
      6 N          63.5667   91.0677   16.7721 N.ar    1  UNL1       -0.1221
      7 N          64.4026   91.9363   15.8794 N.ar    1  UNL1       -0.1282
      8 C          64.6141   91.2050   14.5869 C.ar    1  UNL1        0.1683
      9 C          65.3938   91.7063   13.4076 C.ar    1  UNL1        0.0551
     10 C          64.6956   91.9804   12.1085 C.ar    1  UNL1        0.0063
     11 C          65.4754   92.4817   10.9292 C.ar    1  UNL1        0.0239
     12 C          66.9533   92.7088   11.0490 C.ar    1  UNL1        0.1342
     13 N          67.6514   92.4347   12.3481 N.ar    1  UNL1       -0.2392
     14 C          66.8716   91.9334   13.5273 C.ar    1  UNL1        0.1020
     15 C          67.7330   93.2101    9.8697 C.2     1  UNL1        0.2605
     16 N          69.1483   92.7597    9.6601 N.am    1  UNL1       -0.3241
     17 O          67.0974   94.1618    8.9001 O.2     1  UNL1       -0.2687
     18 H          69.5655   92.1351   10.2965 H       1  UNL1        0.1453
     19 H          69.6601   93.0888    8.8861 H       1  UNL1        0.1453
     20 C          63.2548   86.1811   16.6766 C.3     1  UNL1        0.0294
     21 C          64.2837   85.9435   15.6112 C.3     1  UNL1        0.0730
     22 N          64.0703   84.8663   14.5894 N.3     1  UNL1       -0.2726
     23 C          64.4908   83.4323   14.7190 C.3     1  UNL1        0.0721
     24 C          64.0793   82.7138   13.4682 C.3     1  UNL1        0.0190
     25 C          63.4046   83.7037   12.5656 C.3     1  UNL1        0.0201
     26 C          63.1218   82.7360   11.4550 C.3     1  UNL1        0.0061
     27 C          62.7013   84.1700   11.3254 C.3     1  UNL1        0.0237
     28 C          63.3990   85.0341   13.2585 C.3     1  UNL1        0.0724
     29 C          62.0526   85.2671   10.5345 C.ar    1  UNL1       -0.0225
     30 C          62.2533   85.3410    9.0499 C.ar    1  UNL1       -0.0043
     31 C          61.6045   86.4381    8.2590 C.ar    1  UNL1        0.0035
     32 C          60.7551   87.4613    8.9529 C.ar    1  UNL1        0.0714
     33 C          60.5544   87.3874   10.4376 C.ar    1  UNL1        0.0035
     34 C          61.2032   86.2903   11.2284 C.ar    1  UNL1       -0.0043
     35 C          60.1064   88.5584    8.1620 C.3     1  UNL1        0.4186
     36 F          59.4576   89.6556    7.3712 F       1  UNL1       -0.1659
     37 F          59.3209   87.5387    7.3918 F       1  UNL1       -0.1659
     38 F          60.8918   89.5781    8.9323 F       1  UNL1       -0.1659
@<TRIPOS>BOND
     1     3     4    1
     2     4     5   ar
     3     5     2    1
     4     2     1    1
     5     1    20    1
     6    20    21    1
     7    21    22    1
     8    22    23    1
     9    23    24    1
    10    25    24    1
    11    25    26    1
    12    26    27    1
    13    27    29    1
    14    29    30   ar
    15    30    31   ar
    16    31    32   ar
    17    32    35    1
    18    35    36    1
    19    35    37    1
    20    35    38    1
    21    32    33   ar
    22    33    34   ar
    23    25    28    1
    24     5     6   ar
    25     6     7   ar
    26     7     8   ar
    27     8     9    1
    28     9    10   ar
    29    10    11   ar
    30    11    12   ar
    31    12    15    1
    32    15    16   am
    33    15    17    2
    34    12    13   ar
    35    13    14   ar
    36     8     4   ar
    37    14     9   ar
    38    28    22    1
    39    27    25    1
    40    34    29   ar
    41    16    18    1
    42    16    19    1
@<TRIPOS>MOLECULE
*****
 38 42 0 0 0
SMALL
GASTEIGER

@<TRIPOS>ATOM
      1 C          60.2291   88.4589    9.1910 C.3     1  UNL1        0.0666
      2 S          60.3882   89.8008    9.8421 S.3     1  UNL1       -0.0756
      3 C          63.2778   91.3076   10.0143 C.3     1  UNL1        0.1340
      4 N          62.5651   90.6349   11.1499 N.ar    1  UNL1       -0.2884
      5 C          61.2369   89.9423   11.0708 C.ar    1  UNL1        0.1932
      6 N          60.9065   89.4161   12.4360 N.ar    1  UNL1       -0.1221
      7 N          62.0304   89.7834   13.3589 N.ar    1  UNL1       -0.1282
      8 C          63.0556   90.5367   12.5641 C.ar    1  UNL1        0.1683
      9 C          64.3447   91.0939   13.0910 C.ar    1  UNL1        0.0551
     10 C          64.9541   90.5244   14.3377 C.ar    1  UNL1        0.0063
     11 C          66.2432   91.0817   14.8646 C.ar    1  UNL1        0.0239
     12 C          66.9230   92.2085   14.1446 C.ar    1  UNL1        0.1342
     13 N          66.3136   92.7780   12.8979 N.ar    1  UNL1       -0.2392
     14 C          65.0245   92.2207   12.3711 C.ar    1  UNL1        0.1020
     15 C          68.2121   92.7657   14.6714 C.2     1  UNL1        0.2605
     16 N          69.5198   92.2831   14.1174 N.am    1  UNL1       -0.3241
     17 O          68.1936   93.8055   15.7524 O.2     1  UNL1       -0.2687
     18 H          69.5320   91.6007   13.4079 H       1  UNL1        0.1453
     19 H          70.3659   92.6489   14.4632 H       1  UNL1        0.1453
     20 C          60.9085   87.2562    9.7759 C.3     1  UNL1        0.0294
     21 C          61.7553   86.3757    8.9055 C.3     1  UNL1        0.0730
     22 N          62.5719   85.2770    9.5188 N.3     1  UNL1       -0.2726
     23 C          63.1827   84.1188    8.7871 C.3     1  UNL1        0.0721
     24 C          63.9093   83.2697    9.7876 C.3     1  UNL1        0.0190
     25 C          63.7475   83.9030   11.1377 C.3     1  UNL1        0.0201
     26 C          64.5426   82.8766   11.8888 C.3     1  UNL1        0.0061
     27 C          63.9318   84.0348   12.6205 C.3     1  UNL1        0.0237
     28 C          62.9209   85.1437   10.9716 C.3     1  UNL1        0.0724
     29 C          63.6855   84.7796   13.8990 C.ar    1  UNL1       -0.0225
     30 C          62.8258   84.1717   14.9674 C.ar    1  UNL1       -0.0043
     31 C          62.5796   84.9164   16.2460 C.ar    1  UNL1        0.0035
     32 C          63.1929   86.2691   16.4561 C.ar    1  UNL1        0.0714
     33 C          64.0526   86.8769   15.3876 C.ar    1  UNL1        0.0035
     34 C          64.2988   86.1322   14.1091 C.ar    1  UNL1       -0.0043
     35 C          62.9466   87.0138   17.7346 C.3     1  UNL1        0.4186
     36 F          62.7003   87.7587   19.0132 F       1  UNL1       -0.1659
     37 F          62.3975   85.7643   18.3567 F       1  UNL1       -0.1659
     38 F          63.4958   88.2634   17.1125 F       1  UNL1       -0.1659
@<TRIPOS>BOND
     1     3     4    1
     2     4     5   ar
     3     5     2    1
     4     2     1    1
     5     1    20    1
     6    20    21    1
     7    21    22    1
     8    22    23    1
     9    23    24    1
    10    25    24    1
    11    25    26    1
    12    26    27    1
    13    27    29    1
    14    29    30   ar
    15    30    31   ar
    16    31    32   ar
    17    32    35    1
    18    35    36    1
    19    35    37    1
    20    35    38    1
    21    32    33   ar
    22    33    34   ar
    23    25    28    1
    24     5     6   ar
    25     6     7   ar
    26     7     8   ar
    27     8     9    1
    28     9    10   ar
    29    10    11   ar
    30    11    12   ar
    31    12    15    1
    32    15    16   am
    33    15    17    2
    34    12    13   ar
    35    13    14   ar
    36     8     4   ar
    37    14     9   ar
    38    28    22    1
    39    27    25    1
    40    34    29   ar
    41    16    18    1
    42    16    19    1
@<TRIPOS>MOLECULE
*****
 38 42 0 0 0
SMALL
GASTEIGER

@<TRIPOS>ATOM
      1 C          63.6407   82.8376   12.7954 C.3     1  UNL1        0.0666
      2 S          63.7642   83.7276   11.5943 S.3     1  UNL1       -0.0756
      3 C          63.0483   85.1124    8.7274 C.3     1  UNL1        0.1340
      4 N          62.4401   85.4640   10.0527 N.ar    1  UNL1       -0.2884
      5 C          62.7692   84.8275   11.3705 C.ar    1  UNL1        0.1932
      6 N          61.9285   85.4839   12.4252 N.ar    1  UNL1       -0.1221
      7 N          61.0799   86.5262   11.7593 N.ar    1  UNL1       -0.1282
      8 C          61.3960   86.5140   10.2930 C.ar    1  UNL1        0.1683
      9 C          60.7769   87.3966    9.2501 C.ar    1  UNL1        0.0551
     10 C          59.9692   86.7927    8.1398 C.ar    1  UNL1        0.0063
     11 C          59.3500   87.6753    7.0969 C.ar    1  UNL1        0.0239
     12 C          59.5386   89.1620    7.1645 C.ar    1  UNL1        0.1342
     13 N          60.3463   89.7659    8.2748 N.ar    1  UNL1       -0.2392
     14 C          60.9655   88.8831    9.3177 C.ar    1  UNL1        0.1020
     15 C          58.9195   90.0446    6.1216 C.2     1  UNL1        0.2605
     16 N          57.4267   90.1373    6.0076 N.am    1  UNL1       -0.3241
     17 O          59.7931   90.8345    5.1927 O.2     1  UNL1       -0.2687
     18 H          56.8533   89.6189    6.6173 H       1  UNL1        0.1453
     19 H          57.0203   90.7167    5.3231 H       1  UNL1        0.1453
     20 C          63.8963   83.3888   14.1669 C.3     1  UNL1        0.0294
     21 C          64.6783   84.6583   14.3313 C.3     1  UNL1        0.0730
     22 N          64.1494   85.7572   15.2045 N.3     1  UNL1       -0.2726
     23 C          63.4922   85.5820   16.5415 C.3     1  UNL1        0.0721
     24 C          63.1214   86.9408   17.0573 C.3     1  UNL1        0.0190
     25 C          63.5495   87.9558   16.0392 C.3     1  UNL1        0.0201
     26 C          63.0682   89.1548   16.8013 C.3     1  UNL1        0.0061
     27 C          63.7254   89.3301   15.4643 C.3     1  UNL1        0.0237
     28 C          64.1848   87.2243   14.8941 C.3     1  UNL1        0.0724
     29 C          64.2064   90.2246   14.3606 C.ar    1  UNL1       -0.0225
     30 C          63.4314   90.3185   13.0797 C.ar    1  UNL1       -0.0043
     31 C          63.9124   91.2131   11.9759 C.ar    1  UNL1        0.0035
     32 C          65.1684   92.0138   12.1530 C.ar    1  UNL1        0.0714
     33 C          65.9434   91.9199   13.4339 C.ar    1  UNL1        0.0035
     34 C          65.4624   91.0253   14.5376 C.ar    1  UNL1       -0.0043
     35 C          65.6494   92.9083   11.0492 C.3     1  UNL1        0.4186
     36 F          66.1304   93.8029    9.9453 F       1  UNL1       -0.1659
     37 F          66.7807   93.3721   11.9181 F       1  UNL1       -0.1659
     38 F          64.5181   92.4445   10.1803 F       1  UNL1       -0.1659
@<TRIPOS>BOND
     1     3     4    1
     2     4     5   ar
     3     5     2    1
     4     2     1    1
     5     1    20    1
     6    20    21    1
     7    21    22    1
     8    22    23    1
     9    23    24    1
    10    25    24    1
    11    25    26    1
    12    26    27    1
    13    27    29    1
    14    29    30   ar
    15    30    31   ar
    16    31    32   ar
    17    32    35    1
    18    35    36    1
    19    35    37    1
    20    35    38    1
    21    32    33   ar
    22    33    34   ar
    23    25    28    1
    24     5     6   ar
    25     6     7   ar
    26     7     8   ar
    27     8     9    1
    28     9    10   ar
    29    10    11   ar
    30    11    12   ar
    31    12    15    1
    32    15    16   am
    33    15    17    2
    34    12    13   ar
    35    13    14   ar
    36     8     4   ar
    37    14     9   ar
    38    28    22    1
    39    27    25    1
    40    34    29   ar
    41    16    18    1
    42    16    19    1
@<TRIPOS>MOLECULE
*****
 38 42 0 0 0
SMALL
GASTEIGER

@<TRIPOS>ATOM
      1 C          61.5352   85.8372    9.2722 C.3     1  UNL1        0.0666
      2 S          60.8861   86.7673   10.2538 S.3     1  UNL1       -0.0756
      3 C          63.1406   87.4025   12.5260 C.3     1  UNL1        0.1340
      4 N          62.5361   88.3984   11.5811 N.ar    1  UNL1       -0.2884
      5 C          61.4998   88.1065   10.5367 C.ar    1  UNL1        0.1932
      6 N          61.1850   89.3887    9.8248 N.ar    1  UNL1       -0.1221
      7 N          62.0268   90.4732   10.4293 N.ar    1  UNL1       -0.1282
      8 C          62.8618   89.8612   11.5148 C.ar    1  UNL1        0.1683
      9 C          63.8492   90.5849   12.3816 C.ar    1  UNL1        0.0551
     10 C          64.2619   89.9983   13.6991 C.ar    1  UNL1        0.0063
     11 C          65.2492   90.7220   14.5659 C.ar    1  UNL1        0.0239
     12 C          65.8238   92.0323   14.1153 C.ar    1  UNL1        0.1342
     13 N          65.4111   92.6189   12.7979 N.ar    1  UNL1       -0.2392
     14 C          64.4238   91.8951   11.9310 C.ar    1  UNL1        0.1020
     15 C          66.8112   92.7559   14.9822 C.2     1  UNL1        0.2605
     16 N          66.4462   93.1217   16.3903 N.am    1  UNL1       -0.3241
     17 O          68.1635   93.1138   14.4408 O.2     1  UNL1       -0.2687
     18 H          65.5586   92.8868   16.7456 H       1  UNL1        0.1453
     19 H          67.0942   93.5967   16.9593 H       1  UNL1        0.1453
     20 C          62.9953   85.5165    9.3956 C.3     1  UNL1        0.0294
     21 C          63.4787   84.1168    9.1566 C.3     1  UNL1        0.0730
     22 N          63.4134   83.1022   10.2594 N.3     1  UNL1       -0.2726
     23 C          63.3936   81.6123   10.0867 C.3     1  UNL1        0.0721
     24 C          63.3245   80.9887   11.4491 C.3     1  UNL1        0.0190
     25 C          63.3016   82.0931   12.4639 C.3     1  UNL1        0.0201
     26 C          63.2343   81.1995   13.6668 C.3     1  UNL1        0.0061
     27 C          63.2541   82.6894   13.8395 C.3     1  UNL1        0.0237
     28 C          63.3565   83.3993   11.7286 C.3     1  UNL1        0.0724
     29 C          63.2381   83.8938   14.7333 C.ar    1  UNL1       -0.0225
     30 C          62.0387   84.1774   15.5884 C.ar    1  UNL1       -0.0043
     31 C          62.0227   85.3818   16.4823 C.ar    1  UNL1        0.0035
     32 C          63.2061   86.3027   16.5211 C.ar    1  UNL1        0.0714
     33 C          64.4055   86.0191   15.6661 C.ar    1  UNL1        0.0035
     34 C          64.4215   84.8147   14.7722 C.ar    1  UNL1       -0.0043
     35 C          63.1901   87.5071   17.4150 C.3     1  UNL1        0.4186
     36 F          63.1741   88.7116   18.3089 F       1  UNL1       -0.1659
     37 F          63.5633   88.3761   16.2507 F       1  UNL1       -0.1659
     38 F          62.8169   86.6381   18.5792 F       1  UNL1       -0.1659
@<TRIPOS>BOND
     1     3     4    1
     2     4     5   ar
     3     5     2    1
     4     2     1    1
     5     1    20    1
     6    20    21    1
     7    21    22    1
     8    22    23    1
     9    23    24    1
    10    25    24    1
    11    25    26    1
    12    26    27    1
    13    27    29    1
    14    29    30   ar
    15    30    31   ar
    16    31    32   ar
    17    32    35    1
    18    35    36    1
    19    35    37    1
    20    35    38    1
    21    32    33   ar
    22    33    34   ar
    23    25    28    1
    24     5     6   ar
    25     6     7   ar
    26     7     8   ar
    27     8     9    1
    28     9    10   ar
    29    10    11   ar
    30    11    12   ar
    31    12    15    1
    32    15    16   am
    33    15    17    2
    34    12    13   ar
    35    13    14   ar
    36     8     4   ar
    37    14     9   ar
    38    28    22    1
    39    27    25    1
    40    34    29   ar
    41    16    18    1
    42    16    19    1
@<TRIPOS>MOLECULE
*****
 38 42 0 0 0
SMALL
GASTEIGER

@<TRIPOS>ATOM
      1 C          63.8269   82.3609   14.4531 C.3     1  UNL1        0.0666
      2 S          63.9769   81.8439   13.0531 S.3     1  UNL1       -0.0756
      3 C          62.0467   84.4750   13.0149 C.3     1  UNL1        0.1340
      4 N          62.8748   83.9723   11.8697 N.ar    1  UNL1       -0.2884
      5 C          63.7620   82.7630   11.8872 C.ar    1  UNL1        0.1932
      6 N          64.3967   82.6339   10.5342 N.ar    1  UNL1       -0.1221
      7 N          63.9017   83.7636    9.6805 N.ar    1  UNL1       -0.1282
      8 C          62.9611   84.5908   10.5058 C.ar    1  UNL1        0.1683
      9 C          62.2345   85.8205   10.0477 C.ar    1  UNL1        0.0551
     10 C          62.3592   87.0981   10.8236 C.ar    1  UNL1        0.0063
     11 C          61.6325   88.3278   10.3655 C.ar    1  UNL1        0.0239
     12 C          60.7811   88.2797    9.1314 C.ar    1  UNL1        0.1342
     13 N          60.6564   87.0021    8.3555 N.ar    1  UNL1       -0.2392
     14 C          61.3831   85.7724    8.8137 C.ar    1  UNL1        0.1020
     15 C          60.0545   89.5094    8.6733 C.2     1  UNL1        0.2605
     16 N          59.7270   89.6896    7.2206 N.am    1  UNL1       -0.3241
     17 O          59.6553   90.5589    9.6679 O.2     1  UNL1       -0.2687
     18 H          59.9890   89.0008    6.5678 H       1  UNL1        0.1453
     19 H          59.2501   90.4967    6.9200 H       1  UNL1        0.1453
     20 C          64.8694   83.2708   15.0324 C.3     1  UNL1        0.0294
     21 C          64.9639   84.6942   14.5689 C.3     1  UNL1        0.0730
     22 N          64.3215   85.7879   15.3696 N.3     1  UNL1       -0.2726
     23 C          63.6032   85.6191   16.6755 C.3     1  UNL1        0.0721
     24 C          63.1224   86.9694   17.1179 C.3     1  UNL1        0.0190
     25 C          63.5436   87.9726   16.0854 C.3     1  UNL1        0.0201
     26 C          62.9488   89.1652   16.7738 C.3     1  UNL1        0.0061
     27 C          63.6672   89.3340   15.4679 C.3     1  UNL1        0.0237
     28 C          64.2847   87.2425   15.0049 C.3     1  UNL1        0.0724
     29 C          64.1532   90.2174   14.3573 C.ar    1  UNL1       -0.0225
     30 C          63.3876   90.2934   13.0697 C.ar    1  UNL1       -0.0043
     31 C          63.8737   91.1769   11.9591 C.ar    1  UNL1        0.0035
     32 C          65.1253   91.9843   12.1363 C.ar    1  UNL1        0.0714
     33 C          65.8909   91.9083   13.4240 C.ar    1  UNL1        0.0035
     34 C          65.4049   91.0249   14.5345 C.ar    1  UNL1       -0.0043
     35 C          65.6114   92.8677   11.0258 C.3     1  UNL1        0.4186
     36 F          66.0974   93.7512    9.9151 F       1  UNL1       -0.1659
     37 F          66.7902   93.2698   11.8616 F       1  UNL1       -0.1659
     38 F          64.4325   92.4656   10.1899 F       1  UNL1       -0.1659
@<TRIPOS>BOND
     1     3     4    1
     2     4     5   ar
     3     5     2    1
     4     2     1    1
     5     1    20    1
     6    20    21    1
     7    21    22    1
     8    22    23    1
     9    23    24    1
    10    25    24    1
    11    25    26    1
    12    26    27    1
    13    27    29    1
    14    29    30   ar
    15    30    31   ar
    16    31    32   ar
    17    32    35    1
    18    35    36    1
    19    35    37    1
    20    35    38    1
    21    32    33   ar
    22    33    34   ar
    23    25    28    1
    24     5     6   ar
    25     6     7   ar
    26     7     8   ar
    27     8     9    1
    28     9    10   ar
    29    10    11   ar
    30    11    12   ar
    31    12    15    1
    32    15    16   am
    33    15    17    2
    34    12    13   ar
    35    13    14   ar
    36     8     4   ar
    37    14     9   ar
    38    28    22    1
    39    27    25    1
    40    34    29   ar
    41    16    18    1
    42    16    19    1
@<TRIPOS>MOLECULE
*****
 38 42 0 0 0
SMALL
GASTEIGER

@<TRIPOS>ATOM
      1 C          58.8473   91.1480    4.8174 C.3     1  UNL1        0.0666
      2 S          59.4016   92.4458    4.3092 S.3     1  UNL1       -0.0756
      3 C          59.8333   94.1147    1.5383 C.3     1  UNL1        0.1340
      4 N          60.8423   93.2199    2.1950 N.ar    1  UNL1       -0.2884
      5 C          60.6439   92.4529    3.4687 C.ar    1  UNL1        0.1932
      6 N          61.9059   91.6940    3.7542 N.ar    1  UNL1       -0.1221
      7 N          62.8843   91.9921    2.6570 N.ar    1  UNL1       -0.1282
      8 C          62.2271   92.9352    1.6933 C.ar    1  UNL1        0.1683
      9 C          62.8458   93.4951    0.4469 C.ar    1  UNL1        0.0551
     10 C          62.2681   93.1554   -0.8951 C.ar    1  UNL1        0.0063
     11 C          62.8869   93.7154   -2.1415 C.ar    1  UNL1        0.0239
     12 C          64.0834   94.6151   -2.0459 C.ar    1  UNL1        0.1342
     13 N          64.6610   94.9548   -0.7039 N.ar    1  UNL1       -0.2392
     14 C          64.0422   94.3948    0.5425 C.ar    1  UNL1        0.1020
     15 C          64.7021   95.1751   -3.2923 C.2     1  UNL1        0.2605
     16 N          64.6833   94.3775   -4.5625 N.am    1  UNL1       -0.3241
     17 O          65.3398   96.5326   -3.2685 O.2     1  UNL1       -0.2687
     18 H          64.2648   93.4865   -4.5782 H       1  UNL1        0.1453
     19 H          65.0894   94.7450   -5.3806 H       1  UNL1        0.1453
     20 C          59.5732   90.3910    5.8898 C.3     1  UNL1        0.0294
     21 C          58.8000   89.6832    6.9627 C.3     1  UNL1        0.0730
     22 N          59.4328   88.5561    7.7237 N.3     1  UNL1       -0.2726
     23 C          59.1228   87.0977    7.5593 C.3     1  UNL1        0.0721
     24 C          59.9851   86.3298    8.5167 C.3     1  UNL1        0.0190
     25 C          60.8281   87.3135    9.2728 C.3     1  UNL1        0.0201
     26 C          61.5455   86.2954   10.1087 C.3     1  UNL1        0.0061
     27 C          61.8556   87.7537   10.2731 C.3     1  UNL1        0.0237
     28 C          60.4867   88.6895    8.7827 C.3     1  UNL1        0.0724
     29 C          62.6277   88.8499   10.9455 C.ar    1  UNL1       -0.0225
     30 C          63.1531   88.6528   12.3366 C.ar    1  UNL1       -0.0043
     31 C          63.9253   89.7490   13.0090 C.ar    1  UNL1        0.0035
     32 C          64.1721   91.0422   12.2903 C.ar    1  UNL1        0.0714
     33 C          63.6468   91.2393   10.8992 C.ar    1  UNL1        0.0035
     34 C          62.8746   90.1431   10.2268 C.ar    1  UNL1       -0.0043
     35 C          64.9443   92.1384   12.9627 C.3     1  UNL1        0.4186
     36 F          65.7165   93.2346   13.6351 F       1  UNL1       -0.1659
     37 F          64.9928   92.8973   11.6697 F       1  UNL1       -0.1659
     38 F          64.8957   91.3795   14.2556 F       1  UNL1       -0.1659
@<TRIPOS>BOND
     1     3     4    1
     2     4     5   ar
     3     5     2    1
     4     2     1    1
     5     1    20    1
     6    20    21    1
     7    21    22    1
     8    22    23    1
     9    23    24    1
    10    25    24    1
    11    25    26    1
    12    26    27    1
    13    27    29    1
    14    29    30   ar
    15    30    31   ar
    16    31    32   ar
    17    32    35    1
    18    35    36    1
    19    35    37    1
    20    35    38    1
    21    32    33   ar
    22    33    34   ar
    23    25    28    1
    24     5     6   ar
    25     6     7   ar
    26     7     8   ar
    27     8     9    1
    28     9    10   ar
    29    10    11   ar
    30    11    12   ar
    31    12    15    1
    32    15    16   am
    33    15    17    2
    34    12    13   ar
    35    13    14   ar
    36     8     4   ar
    37    14     9   ar
    38    28    22    1
    39    27    25    1
    40    34    29   ar
    41    16    18    1
    42    16    19    1
@<TRIPOS>MOLECULE
*****
 38 42 0 0 0
SMALL
GASTEIGER

@<TRIPOS>ATOM
      1 C          59.5111   90.2267    5.7800 C.3     1  UNL1        0.0666
      2 S          59.0064   89.3332    6.8739 S.3     1  UNL1       -0.0756
      3 C          59.8508   86.2330    7.4447 C.3     1  UNL1        0.1340
      4 N          60.3303   87.4322    8.2075 N.ar    1  UNL1       -0.2884
      5 C          59.9422   88.8572    7.9452 C.ar    1  UNL1        0.1932
      6 N          60.6542   89.7227    8.9422 N.ar    1  UNL1       -0.1221
      7 N          61.4824   88.8326    9.8208 N.ar    1  UNL1       -0.1282
      8 C          61.2823   87.4170    9.3668 C.ar    1  UNL1        0.1683
      9 C          61.9217   86.1999    9.9666 C.ar    1  UNL1        0.0551
     10 C          62.7813   85.3095    9.1191 C.ar    1  UNL1        0.0063
     11 C          63.4207   84.0924    9.7190 C.ar    1  UNL1        0.0239
     12 C          63.2006   83.7658   11.1664 C.ar    1  UNL1        0.1342
     13 N          62.3411   84.6563   12.0139 N.ar    1  UNL1       -0.2392
     14 C          61.7016   85.8733   11.4140 C.ar    1  UNL1        0.1020
     15 C          63.8401   82.5487   11.7662 C.2     1  UNL1        0.2605
     16 N          65.0062   82.6964   12.6981 N.am    1  UNL1       -0.3241
     17 O          63.3134   81.1841   11.4343 O.2     1  UNL1       -0.2687
     18 H          65.3519   83.5920   12.9160 H       1  UNL1        0.1453
     19 H          65.4259   81.8975   13.0918 H       1  UNL1        0.1453
     20 C          58.6085   91.2659    5.1839 C.3     1  UNL1        0.0294
     21 C          59.1814   92.5577    4.6808 C.3     1  UNL1        0.0730
     22 N          59.9416   92.5880    3.3881 N.3     1  UNL1       -0.2726
     23 C          61.3817   92.2114    3.2031 C.3     1  UNL1        0.0721
     24 C          61.7253   92.3908    1.7540 C.3     1  UNL1        0.0190
     25 C          60.4975   92.8784    1.0435 C.3     1  UNL1        0.0201
     26 C          61.1252   92.9595   -0.3165 C.3     1  UNL1        0.0061
     27 C          59.6850   93.3361   -0.1315 C.3     1  UNL1        0.0237
     28 C          59.3951   93.0002    2.0534 C.3     1  UNL1        0.0724
     29 C          58.3845   93.8177   -0.7030 C.ar    1  UNL1       -0.0225
     30 C          57.3408   92.8286   -1.1301 C.ar    1  UNL1       -0.0043
     31 C          56.0403   93.3103   -1.7016 C.ar    1  UNL1        0.0035
     32 C          55.7835   94.7811   -1.8460 C.ar    1  UNL1        0.0714
     33 C          56.8272   95.7702   -1.4189 C.ar    1  UNL1        0.0035
     34 C          58.1277   95.2885   -0.8474 C.ar    1  UNL1       -0.0043
     35 C          54.4830   95.2628   -2.4176 C.3     1  UNL1        0.4186
     36 F          53.1825   95.7445   -2.9891 F       1  UNL1       -0.1659
     37 F          53.9107   95.3585   -1.0344 F       1  UNL1       -0.1659
     38 F          55.0554   95.1670   -3.8007 F       1  UNL1       -0.1659
@<TRIPOS>BOND
     1     3     4    1
     2     4     5   ar
     3     5     2    1
     4     2     1    1
     5     1    20    1
     6    20    21    1
     7    21    22    1
     8    22    23    1
     9    23    24    1
    10    25    24    1
    11    25    26    1
    12    26    27    1
    13    27    29    1
    14    29    30   ar
    15    30    31   ar
    16    31    32   ar
    17    32    35    1
    18    35    36    1
    19    35    37    1
    20    35    38    1
    21    32    33   ar
    22    33    34   ar
    23    25    28    1
    24     5     6   ar
    25     6     7   ar
    26     7     8   ar
    27     8     9    1
    28     9    10   ar
    29    10    11   ar
    30    11    12   ar
    31    12    15    1
    32    15    16   am
    33    15    17    2
    34    12    13   ar
    35    13    14   ar
    36     8     4   ar
    37    14     9   ar
    38    28    22    1
    39    27    25    1
    40    34    29   ar
    41    16    18    1
    42    16    19    1
@<TRIPOS>MOLECULE
*****
 38 42 0 0 0
SMALL
GASTEIGER

@<TRIPOS>ATOM
      1 C          63.4913   88.1676   16.8779 C.3     1  UNL1        0.0666
      2 S          62.5447   88.8873   15.9637 S.3     1  UNL1       -0.0756
      3 C          64.2159   91.6511   15.4967 C.3     1  UNL1        0.1340
      4 N          63.7975   90.6828   14.4302 N.ar    1  UNL1       -0.2884
      5 C          63.0293   89.4124   14.6448 C.ar    1  UNL1        0.1932
      6 N          62.8309   88.7594   13.3091 N.ar    1  UNL1       -0.1221
      7 N          63.4765   89.6261   12.2689 N.ar    1  UNL1       -0.1282
      8 C          64.0739   90.8149   12.9617 C.ar    1  UNL1        0.1683
      9 C          64.8172   91.9384   12.3020 C.ar    1  UNL1        0.0551
     10 C          65.7404   92.8027   13.1086 C.ar    1  UNL1        0.0063
     11 C          66.4836   93.9262   12.4489 C.ar    1  UNL1        0.0239
     12 C          66.3036   94.1854   10.9824 C.ar    1  UNL1        0.1342
     13 N          65.3804   93.3211   10.1757 N.ar    1  UNL1       -0.2392
     14 C          64.6371   92.1976   10.8356 C.ar    1  UNL1        0.1020
     15 C          67.0468   95.3089   10.3227 C.2     1  UNL1        0.2605
     16 N          67.9897   95.0225    9.1917 N.am    1  UNL1       -0.3241
     17 O          66.8473   96.7190   10.7938 O.2     1  UNL1       -0.2687
     18 H          68.1206   94.0970    8.8825 H       1  UNL1        0.1453
     19 H          68.4775   95.7599    8.7587 H       1  UNL1        0.1453
     20 C          63.3910   86.6798   17.0411 C.3     1  UNL1        0.0294
     21 C          62.5111   85.8824   16.1247 C.3     1  UNL1        0.0730
     22 N          63.1216   85.0387   15.0451 N.3     1  UNL1       -0.2726
     23 C          64.1164   83.9342   15.2459 C.3     1  UNL1        0.0721
     24 C          64.4540   83.3643   13.9000 C.3     1  UNL1        0.0190
     25 C          63.6679   84.1166   12.8676 C.3     1  UNL1        0.0201
     26 C          64.1928   83.3562   11.6860 C.3     1  UNL1        0.0061
     27 C          63.1979   84.4607   11.4852 C.3     1  UNL1        0.0237
     28 C          62.8443   85.1514   13.5753 C.3     1  UNL1        0.0724
     29 C          62.3523   85.2971   10.5713 C.ar    1  UNL1       -0.0225
     30 C          61.3112   86.2137   11.1424 C.ar    1  UNL1       -0.0043
     31 C          60.4656   87.0500   10.2285 C.ar    1  UNL1        0.0035
     32 C          60.6609   86.9698    8.7435 C.ar    1  UNL1        0.0714
     33 C          61.7020   86.0533    8.1723 C.ar    1  UNL1        0.0035
     34 C          62.5477   85.2169    9.0863 C.ar    1  UNL1       -0.0043
     35 C          59.8153   87.8062    7.8295 C.3     1  UNL1        0.4186
     36 F          58.9696   88.6427    6.9156 F       1  UNL1       -0.1659
     37 F          59.1770   86.5637    7.2831 F       1  UNL1       -0.1659
     38 F          60.4536   89.0488    8.3760 F       1  UNL1       -0.1659
@<TRIPOS>BOND
     1     3     4    1
     2     4     5   ar
     3     5     2    1
     4     2     1    1
     5     1    20    1
     6    20    21    1
     7    21    22    1
     8    22    23    1
     9    23    24    1
    10    25    24    1
    11    25    26    1
    12    26    27    1
    13    27    29    1
    14    29    30   ar
    15    30    31   ar
    16    31    32   ar
    17    32    35    1
    18    35    36    1
    19    35    37    1
    20    35    38    1
    21    32    33   ar
    22    33    34   ar
    23    25    28    1
    24     5     6   ar
    25     6     7   ar
    26     7     8   ar
    27     8     9    1
    28     9    10   ar
    29    10    11   ar
    30    11    12   ar
    31    12    15    1
    32    15    16   am
    33    15    17    2
    34    12    13   ar
    35    13    14   ar
    36     8     4   ar
    37    14     9   ar
    38    28    22    1
    39    27    25    1
    40    34    29   ar
    41    16    18    1
    42    16    19    1
