@<TRIPOS>MOLECULE
*****
 27 30 0 0 0
SMALL
GASTEIGER

@<TRIPOS>ATOM
      1 C          63.1524   84.9337   15.5189 C.ar    1  UNL1        0.2228
      2 N          62.6390   84.9578   16.9281 N.ar    1  UNL1       -0.1240
      3 N          62.6542   86.3807   17.4026 N.ar    1  UNL1       -0.1315
      4 C          63.1769   87.2360   16.2867 C.ar    1  UNL1        0.1616
      5 N          63.4848   86.3417   15.1225 N.ar    1  UNL1       -0.2918
      6 C          64.0281   86.9249   13.8518 C.3     1  UNL1        0.1303
      7 C          64.2635   88.4026   13.7453 C.3     1  UNL1        0.1186
      8 N          63.9556   89.2969   14.9096 N.am    1  UNL1       -0.2688
      9 C          64.1909   90.7744   14.8031 C.2     1  UNL1        0.2494
     10 O          63.8830   91.6687   15.9673 O.2     1  UNL1       -0.2699
     11 C          63.4123   88.7135   16.1803 C.3     1  UNL1        0.1343
     12 C          63.1043   89.6079   17.3445 C.3     1  UNL1        0.0298
     13 C          64.7342   91.3577   13.5324 C.ar    1  UNL1        0.0537
     14 C          63.9005   91.3467   12.2856 C.ar    1  UNL1        0.0068
     15 C          64.4438   91.9300   11.0148 C.ar    1  UNL1        0.0298
     16 C          65.8208   92.5242   10.9911 C.ar    1  UNL1        0.1401
     17 F          66.3642   93.1075    9.7204 F       1  UNL1       -0.2042
     18 C          66.6546   92.5352   12.2380 C.ar    1  UNL1        0.0298
     19 C          66.1113   91.9520   13.5086 C.ar    1  UNL1        0.0068
     20 C          63.4699   82.2658   12.7178 C.ar    1  UNL1        0.1805
     21 N          63.6164   81.4160   13.9453 N.ar    1  UNL1       -0.0601
     22 O          63.5153   82.3121   15.1440 O.2     1  UNL1       -0.3295
     23 C          63.3063   83.7155   14.6574 C.ar    1  UNL1        0.2958
     24 N          63.2783   83.6869   13.1579 N.ar    1  UNL1       -0.1885
     25 C          62.9433   80.4341   10.9520 C.3     1  UNL1        0.0081
     26 C          63.5084   81.7796   11.2993 C.3     1  UNL1        0.0621
     27 C          64.1119   82.6388   10.2281 C.3     1  UNL1        0.0081
@<TRIPOS>BOND
     1    25    26    1
     2    26    27    1
     3    26    20    1
     4    20    21   ar
     5    21    22   ar
     6    22    23   ar
     7    23     1    1
     8     1     2   ar
     9     2     3   ar
    10     3     4   ar
    11     4     5   ar
    12     5     6    1
    13     6     7    1
    14     7     8    1
    15     8     9   am
    16     9    10    2
    17     9    13    1
    18    13    14   ar
    19    14    15   ar
    20    15    16   ar
    21    16    17    1
    22    16    18   ar
    23    18    19   ar
    24     8    11    1
    25    11    12    1
    26    23    24   ar
    27    24    20   ar
    28     5     1   ar
    29    19    13   ar
    30    11     4    1
@<TRIPOS>MOLECULE
*****
 27 30 0 0 0
SMALL
GASTEIGER

@<TRIPOS>ATOM
      1 C          63.7890   90.8613   12.9359 C.ar    1  UNL1        0.2228
      2 N          63.1406   91.6474   11.8352 N.ar    1  UNL1       -0.1240
      3 N          62.4693   90.6788   10.9073 N.ar    1  UNL1       -0.1315
      4 C          62.7028   89.2940   11.4345 C.ar    1  UNL1        0.1616
      5 N          63.5185   89.4068   12.6883 N.ar    1  UNL1       -0.2918
      6 C          63.9094   88.1706   13.4424 C.3     1  UNL1        0.1303
      7 C          63.4847   86.8215   12.9428 C.3     1  UNL1        0.1186
      8 N          62.6690   86.7087   11.6891 N.am    1  UNL1       -0.2688
      9 C          62.2443   85.3596   11.1894 C.2     1  UNL1        0.2494
     10 O          61.4287   85.2468    9.9357 O.2     1  UNL1       -0.2699
     11 C          62.2781   87.9450   10.9349 C.3     1  UNL1        0.1343
     12 C          61.4624   87.8322    9.6811 C.3     1  UNL1        0.0298
     13 C          62.6353   84.1234   11.9436 C.ar    1  UNL1        0.0537
     14 C          63.3215   82.9958   11.2312 C.ar    1  UNL1        0.0068
     15 C          63.7125   81.7595   11.9854 C.ar    1  UNL1        0.0298
     16 C          63.4172   81.6508   13.4520 C.ar    1  UNL1        0.1401
     17 F          63.8082   80.4146   14.2063 F       1  UNL1       -0.2042
     18 C          62.7310   82.7785   14.1645 C.ar    1  UNL1        0.0298
     19 C          62.3400   84.0147   13.4103 C.ar    1  UNL1        0.0068
     20 C          66.3951   92.2982   15.4277 C.ar    1  UNL1        0.1805
     21 N          65.1527   92.3112   16.2682 N.ar    1  UNL1       -0.0601
     22 O          64.0252   91.7745   15.4370 O.2     1  UNL1       -0.3295
     23 C          64.5708   91.4298   14.0829 C.ar    1  UNL1        0.2958
     24 N          66.0355   91.7535   14.0772 N.ar    1  UNL1       -0.1885
     25 C          68.1757   94.1764   15.6558 C.3     1  UNL1        0.0081
     26 C          67.7578   92.7505   15.8617 C.3     1  UNL1        0.0621
     27 C          68.7027   91.7769   16.5016 C.3     1  UNL1        0.0081
@<TRIPOS>BOND
     1    25    26    1
     2    26    27    1
     3    26    20    1
     4    20    21   ar
     5    21    22   ar
     6    22    23   ar
     7    23     1    1
     8     1     2   ar
     9     2     3   ar
    10     3     4   ar
    11     4     5   ar
    12     5     6    1
    13     6     7    1
    14     7     8    1
    15     8     9   am
    16     9    10    2
    17     9    13    1
    18    13    14   ar
    19    14    15   ar
    20    15    16   ar
    21    16    17    1
    22    16    18   ar
    23    18    19   ar
    24     8    11    1
    25    11    12    1
    26    23    24   ar
    27    24    20   ar
    28     5     1   ar
    29    19    13   ar
    30    11     4    1
@<TRIPOS>MOLECULE
*****
 27 30 0 0 0
SMALL
GASTEIGER

@<TRIPOS>ATOM
      1 C          61.4521   89.1103   10.0222 C.ar    1  UNL1        0.2228
      2 N          62.0987   90.3327   10.6033 N.ar    1  UNL1       -0.1240
      3 N          62.9233   89.9054   11.7812 N.ar    1  UNL1       -0.1315
      4 C          62.7864   88.4189   11.9280 C.ar    1  UNL1        0.1616
      5 N          61.8771   87.9275   10.8409 N.ar    1  UNL1       -0.2918
      6 C          61.5537   86.4665   10.7369 C.3     1  UNL1        0.1303
      7 C          62.1394   85.4968   11.7202 C.3     1  UNL1        0.1186
      8 N          63.0487   85.9882   12.8073 N.am    1  UNL1       -0.2688
      9 C          63.6345   85.0186   13.7904 C.2     1  UNL1        0.2494
     10 O          64.5437   85.5099   14.8776 O.2     1  UNL1       -0.2699
     11 C          63.3721   87.4492   12.9112 C.3     1  UNL1        0.1343
     12 C          64.2814   87.9406   13.9983 C.3     1  UNL1        0.0298
     13 C          63.3110   83.5576   13.6865 C.ar    1  UNL1        0.0537
     14 C          64.1504   82.6631   12.8231 C.ar    1  UNL1        0.0068
     15 C          63.8269   81.2021   12.7192 C.ar    1  UNL1        0.0298
     16 C          62.6640   80.6355   13.4786 C.ar    1  UNL1        0.1401
     17 F          62.3405   79.1745   13.3747 F       1  UNL1       -0.2042
     18 C          61.8246   81.5300   14.3419 C.ar    1  UNL1        0.0298
     19 C          62.1481   82.9910   14.4459 C.ar    1  UNL1        0.0068
     20 C          59.3332   89.7289    6.8296 C.ar    1  UNL1        0.1805
     21 N          58.9425   88.3208    7.1684 N.ar    1  UNL1       -0.0601
     22 O          59.6888   87.9177    8.4056 O.2     1  UNL1       -0.3295
     23 C          60.5406   89.0766    8.8314 C.ar    1  UNL1        0.2958
     24 N          60.3208   90.1960    7.8574 N.ar    1  UNL1       -0.1885
     25 C          57.3500   90.6369    5.4179 C.3     1  UNL1        0.0081
     26 C          58.8254   90.5292    5.6670 C.3     1  UNL1        0.0621
     27 C          59.7927   91.2219    4.7536 C.3     1  UNL1        0.0081
@<TRIPOS>BOND
     1    25    26    1
     2    26    27    1
     3    26    20    1
     4    20    21   ar
     5    21    22   ar
     6    22    23   ar
     7    23     1    1
     8     1     2   ar
     9     2     3   ar
    10     3     4   ar
    11     4     5   ar
    12     5     6    1
    13     6     7    1
    14     7     8    1
    15     8     9   am
    16     9    10    2
    17     9    13    1
    18    13    14   ar
    19    14    15   ar
    20    15    16   ar
    21    16    17    1
    22    16    18   ar
    23    18    19   ar
    24     8    11    1
    25    11    12    1
    26    23    24   ar
    27    24    20   ar
    28     5     1   ar
    29    19    13   ar
    30    11     4    1
@<TRIPOS>MOLECULE
*****
 27 30 0 0 0
SMALL
GASTEIGER

@<TRIPOS>ATOM
      1 C          61.1410   89.0437   10.3553 C.ar    1  UNL1        0.2228
      2 N          60.9892   88.1743   11.5681 N.ar    1  UNL1       -0.1240
      3 N          62.0106   88.6058   12.5784 N.ar    1  UNL1       -0.1315
      4 C          62.7936   89.7418   11.9899 C.ar    1  UNL1        0.1616
      5 N          62.2561   90.0125   10.6159 N.ar    1  UNL1       -0.2918
      6 C          62.8516   91.1061    9.7796 C.3     1  UNL1        0.1303
      7 C          63.9845   91.9292   10.3173 C.3     1  UNL1        0.1186
      8 N          64.5220   91.6585   11.6913 N.am    1  UNL1       -0.2688
      9 C          65.6549   92.4814   12.2291 C.2     1  UNL1        0.2494
     10 O          66.1924   92.2108   13.6031 O.2     1  UNL1       -0.2699
     11 C          63.9265   90.5648   12.5276 C.3     1  UNL1        0.1343
     12 C          64.4640   90.2941   13.9016 C.3     1  UNL1        0.0298
     13 C          66.2504   93.5751   11.3928 C.ar    1  UNL1        0.0537
     14 C          65.9241   95.0087   11.6900 C.ar    1  UNL1        0.0068
     15 C          66.5196   96.1023   10.8537 C.ar    1  UNL1        0.0298
     16 C          67.4413   95.7623    9.7202 C.ar    1  UNL1        0.1401
     17 F          68.0368   96.8560    8.8839 F       1  UNL1       -0.2042
     18 C          67.7676   94.3287    9.4230 C.ar    1  UNL1        0.0298
     19 C          67.1721   93.2351   10.2592 C.ar    1  UNL1        0.0068
     20 C          59.2451   89.5364    7.0044 C.ar    1  UNL1        0.1805
     21 N          58.8757   88.1220    7.3412 N.ar    1  UNL1       -0.0601
     22 O          59.5410   87.7654    8.6374 O.2     1  UNL1       -0.3295
     23 C          60.3215   88.9592    9.1018 C.ar    1  UNL1        0.2958
     24 N          60.1386   90.0537    8.0925 N.ar    1  UNL1       -0.1885
     25 C          59.8165   90.8753    4.8524 C.3     1  UNL1        0.0081
     26 C          58.7991   90.2993    5.7924 C.3     1  UNL1        0.0621
     27 C          57.3359   90.4862    5.5202 C.3     1  UNL1        0.0081
@<TRIPOS>BOND
     1    25    26    1
     2    26    27    1
     3    26    20    1
     4    20    21   ar
     5    21    22   ar
     6    22    23   ar
     7    23     1    1
     8     1     2   ar
     9     2     3   ar
    10     3     4   ar
    11     4     5   ar
    12     5     6    1
    13     6     7    1
    14     7     8    1
    15     8     9   am
    16     9    10    2
    17     9    13    1
    18    13    14   ar
    19    14    15   ar
    20    15    16   ar
    21    16    17    1
    22    16    18   ar
    23    18    19   ar
    24     8    11    1
    25    11    12    1
    26    23    24   ar
    27    24    20   ar
    28     5     1   ar
    29    19    13   ar
    30    11     4    1
@<TRIPOS>MOLECULE
*****
 27 30 0 0 0
SMALL
GASTEIGER

@<TRIPOS>ATOM
      1 C          62.1554   86.2243   11.8438 C.ar    1  UNL1        0.2228
      2 N          61.2702   86.5428   10.6755 N.ar    1  UNL1       -0.1240
      3 N          61.4631   87.9893   10.3287 N.ar    1  UNL1       -0.1315
      4 C          62.4676   88.5648   11.2825 C.ar    1  UNL1        0.1616
      5 N          62.8955   87.4739   12.2190 N.ar    1  UNL1       -0.2918
      6 C          63.9036   87.7594   13.2923 C.3     1  UNL1        0.1303
      7 C          64.4840   89.1359   13.4292 C.3     1  UNL1        0.1186
      8 N          64.0561   90.2268   12.4927 N.am    1  UNL1       -0.2688
      9 C          64.6364   91.6031   12.6296 C.2     1  UNL1        0.2494
     10 O          64.2085   92.6940   11.6932 O.2     1  UNL1       -0.2699
     11 C          63.0479   89.9412   11.4194 C.3     1  UNL1        0.1343
     12 C          62.6200   91.0321   10.4830 C.3     1  UNL1        0.0298
     13 C          65.6446   91.8886   13.7029 C.ar    1  UNL1        0.0537
     14 C          65.1905   92.1462   15.1091 C.ar    1  UNL1        0.0068
     15 C          66.1988   92.4317   16.1824 C.ar    1  UNL1        0.0298
     16 C          67.6610   92.4596   15.8495 C.ar    1  UNL1        0.1401
     17 F          68.6693   92.7452   16.9228 F       1  UNL1       -0.2042
     18 C          68.1151   92.2021   14.4433 C.ar    1  UNL1        0.0298
     19 C          67.1070   91.9166   13.3700 C.ar    1  UNL1        0.0068
     20 C          62.5058   82.5021   12.8869 C.ar    1  UNL1        0.1805
     21 N          62.4323   83.1728   14.2266 N.ar    1  UNL1       -0.0601
     22 O          62.2921   84.6489   13.9989 O.2     1  UNL1       -0.3295
     23 C          62.2790   84.8903   12.5185 C.ar    1  UNL1        0.2958
     24 N          62.4111   83.5636   11.8312 N.ar    1  UNL1       -0.1885
     25 C          63.0158   80.5244   11.2809 C.3     1  UNL1        0.0081
     26 C          62.6490   81.0287   12.6453 C.3     1  UNL1        0.0621
     27 C          62.4254   80.0593   13.7680 C.3     1  UNL1        0.0081
@<TRIPOS>BOND
     1    25    26    1
     2    26    27    1
     3    26    20    1
     4    20    21   ar
     5    21    22   ar
     6    22    23   ar
     7    23     1    1
     8     1     2   ar
     9     2     3   ar
    10     3     4   ar
    11     4     5   ar
    12     5     6    1
    13     6     7    1
    14     7     8    1
    15     8     9   am
    16     9    10    2
    17     9    13    1
    18    13    14   ar
    19    14    15   ar
    20    15    16   ar
    21    16    17    1
    22    16    18   ar
    23    18    19   ar
    24     8    11    1
    25    11    12    1
    26    23    24   ar
    27    24    20   ar
    28     5     1   ar
    29    19    13   ar
    30    11     4    1
@<TRIPOS>MOLECULE
*****
 27 30 0 0 0
SMALL
GASTEIGER

@<TRIPOS>ATOM
      1 C          59.6577   88.8491    7.3162 C.ar    1  UNL1        0.2228
      2 N          59.0959   87.4583    7.3176 N.ar    1  UNL1       -0.1240
      3 N          59.6414   86.7392    8.5157 N.ar    1  UNL1       -0.1315
      4 C          60.5403   87.6857    9.2548 C.ar    1  UNL1        0.1616
      5 N          60.5504   88.9896    8.5135 N.ar    1  UNL1       -0.2918
      6 C          61.3711   90.1365    9.0244 C.3     1  UNL1        0.1303
      7 C          62.1818   89.9794   10.2767 C.3     1  UNL1        0.1186
      8 N          62.1717   88.6754   11.0180 N.am    1  UNL1       -0.2688
      9 C          62.9824   88.5183   12.2702 C.2     1  UNL1        0.2494
     10 O          62.9723   87.2143   13.0115 O.2     1  UNL1       -0.2699
     11 C          61.3510   87.5285   10.5070 C.3     1  UNL1        0.1343
     12 C          61.3409   86.2245   11.2483 C.3     1  UNL1        0.0298
     13 C          63.8031   89.6652   12.7811 C.ar    1  UNL1        0.0537
     14 C          63.9880   90.8904   11.9358 C.ar    1  UNL1        0.0068
     15 C          64.8088   92.0373   12.4468 C.ar    1  UNL1        0.0298
     16 C          65.4446   91.9589   13.8031 C.ar    1  UNL1        0.1401
     17 F          66.2653   93.1058   14.3141 F       1  UNL1       -0.2042
     18 C          65.2597   90.7337   14.6484 C.ar    1  UNL1        0.0298
     19 C          64.4390   89.5868   14.1375 C.ar    1  UNL1        0.0068
     20 C          59.6526   91.5074    4.4881 C.ar    1  UNL1        0.1805
     21 N          58.2336   91.5914    4.9673 N.ar    1  UNL1       -0.0601
     22 O          58.0629   90.6058    6.0852 O.2     1  UNL1       -0.3295
     23 C          59.3762   89.9127    6.2967 C.ar    1  UNL1        0.2958
     24 N          60.3587   90.4699    5.3096 N.ar    1  UNL1       -0.1885
     25 C          61.7478   92.3472    3.2016 C.3     1  UNL1        0.0081
     26 C          60.2588   92.3185    3.3815 C.3     1  UNL1        0.0621
     27 C          59.3762   93.1009    2.4547 C.3     1  UNL1        0.0081
@<TRIPOS>BOND
     1    25    26    1
     2    26    27    1
     3    26    20    1
     4    20    21   ar
     5    21    22   ar
     6    22    23   ar
     7    23     1    1
     8     1     2   ar
     9     2     3   ar
    10     3     4   ar
    11     4     5   ar
    12     5     6    1
    13     6     7    1
    14     7     8    1
    15     8     9   am
    16     9    10    2
    17     9    13    1
    18    13    14   ar
    19    14    15   ar
    20    15    16   ar
    21    16    17    1
    22    16    18   ar
    23    18    19   ar
    24     8    11    1
    25    11    12    1
    26    23    24   ar
    27    24    20   ar
    28     5     1   ar
    29    19    13   ar
    30    11     4    1
@<TRIPOS>MOLECULE
*****
 27 30 0 0 0
SMALL
GASTEIGER

@<TRIPOS>ATOM
      1 C          61.1344   86.1475    7.9082 C.ar    1  UNL1        0.2228
      2 N          61.7808   85.1946    6.9469 N.ar    1  UNL1       -0.1240
      3 N          62.7222   84.3214    7.7224 N.ar    1  UNL1       -0.1315
      4 C          62.6577   84.7347    9.1629 C.ar    1  UNL1        0.1616
      5 N          61.6764   85.8634    9.2777 N.ar    1  UNL1       -0.2918
      6 C          61.4030   86.4865   10.6145 C.3     1  UNL1        0.1303
      7 C          62.1111   85.9810   11.8365 C.3     1  UNL1        0.1186
      8 N          63.0924   84.8523   11.7216 N.am    1  UNL1       -0.2688
      9 C          63.8005   84.3468   12.9435 C.2     1  UNL1        0.2494
     10 O          64.7818   83.2182   12.8287 O.2     1  UNL1       -0.2699
     11 C          63.3657   84.2292   10.3848 C.3     1  UNL1        0.1343
     12 C          64.3471   83.1006   10.2699 C.3     1  UNL1        0.0298
     13 C          63.5271   84.9699   14.2803 C.ar    1  UNL1        0.0537
     14 C          62.5251   84.3477   15.2070 C.ar    1  UNL1        0.0068
     15 C          62.2518   84.9709   16.5439 C.ar    1  UNL1        0.0298
     16 C          62.9805   86.2162   16.9539 C.ar    1  UNL1        0.1401
     17 F          62.7072   86.8394   18.2907 F       1  UNL1       -0.2042
     18 C          63.9826   86.8384   16.0272 C.ar    1  UNL1        0.0298
     19 C          64.2559   86.2153   14.6904 C.ar    1  UNL1        0.0068
     20 C          59.0644   89.1450    6.5681 C.ar    1  UNL1        0.1805
     21 N          58.0716   88.4940    7.4850 N.ar    1  UNL1       -0.0601
     22 O          58.7262   87.2918    8.0986 O.2     1  UNL1       -0.3295
     23 C          60.1235   87.1999    7.5610 C.ar    1  UNL1        0.2958
     24 N          60.3326   88.3452    6.6151 N.ar    1  UNL1       -0.1885
     25 C          57.4307   90.8540    5.4910 C.3     1  UNL1        0.0081
     26 C          58.8301   90.3790    5.7483 C.3     1  UNL1        0.0621
     27 C          59.9951   91.1381    5.1857 C.3     1  UNL1        0.0081
@<TRIPOS>BOND
     1    25    26    1
     2    26    27    1
     3    26    20    1
     4    20    21   ar
     5    21    22   ar
     6    22    23   ar
     7    23     1    1
     8     1     2   ar
     9     2     3   ar
    10     3     4   ar
    11     4     5   ar
    12     5     6    1
    13     6     7    1
    14     7     8    1
    15     8     9   am
    16     9    10    2
    17     9    13    1
    18    13    14   ar
    19    14    15   ar
    20    15    16   ar
    21    16    17    1
    22    16    18   ar
    23    18    19   ar
    24     8    11    1
    25    11    12    1
    26    23    24   ar
    27    24    20   ar
    28     5     1   ar
    29    19    13   ar
    30    11     4    1
@<TRIPOS>MOLECULE
*****
 27 30 0 0 0
SMALL
GASTEIGER

@<TRIPOS>ATOM
      1 C          63.0814   83.7020   14.2820 C.ar    1  UNL1        0.2228
      2 N          62.5681   83.2535   15.6182 N.ar    1  UNL1       -0.1240
      3 N          62.5352   84.4469   16.5264 N.ar    1  UNL1       -0.1315
      4 C          63.0281   85.6329   15.7515 C.ar    1  UNL1        0.1616
      5 N          63.3657   85.1725   14.3644 N.ar    1  UNL1       -0.2918
      6 C          63.8883   86.1518   13.3555 C.3     1  UNL1        0.1303
      7 C          64.0734   87.5915   13.7338 C.3     1  UNL1        0.1186
      8 N          63.7358   88.0519   15.1209 N.am    1  UNL1       -0.2688
      9 C          63.9209   89.4915   15.4992 C.2     1  UNL1        0.2494
     10 O          63.5833   89.9519   16.8863 O.2     1  UNL1       -0.2699
     11 C          63.2132   87.0725   16.1298 C.3     1  UNL1        0.1343
     12 C          62.8756   87.5329   17.5169 C.3     1  UNL1        0.0298
     13 C          64.4435   90.4708   14.4903 C.ar    1  UNL1        0.0537
     14 C          63.6415   90.7816   13.2614 C.ar    1  UNL1        0.0068
     15 C          64.1642   91.7610   12.2525 C.ar    1  UNL1        0.0298
     16 C          65.4888   92.4294   12.4726 C.ar    1  UNL1        0.1401
     17 F          66.0115   93.4088   11.4637 F       1  UNL1       -0.2042
     18 C          66.2908   92.1186   13.7014 C.ar    1  UNL1        0.0298
     19 C          65.7682   91.1393   14.7103 C.ar    1  UNL1        0.0068
     20 C          63.1484   80.9641   11.5317 C.ar    1  UNL1        0.1805
     21 N          64.0033   82.0254   10.9049 N.ar    1  UNL1       -0.0601
     22 O          64.0822   83.1803   11.8590 O.2     1  UNL1       -0.3295
     23 C          63.2762   82.8326   13.0753 C.ar    1  UNL1        0.2958
     24 N          62.6990   81.4629   12.8730 N.ar    1  UNL1       -0.1885
     25 C          62.7230   79.4930    9.4328 C.3     1  UNL1        0.0081
     26 C          62.8035   79.6368   10.9238 C.3     1  UNL1        0.0621
     27 C          62.5392   78.4534   11.8067 C.3     1  UNL1        0.0081
@<TRIPOS>BOND
     1    25    26    1
     2    26    27    1
     3    26    20    1
     4    20    21   ar
     5    21    22   ar
     6    22    23   ar
     7    23     1    1
     8     1     2   ar
     9     2     3   ar
    10     3     4   ar
    11     4     5   ar
    12     5     6    1
    13     6     7    1
    14     7     8    1
    15     8     9   am
    16     9    10    2
    17     9    13    1
    18    13    14   ar
    19    14    15   ar
    20    15    16   ar
    21    16    17    1
    22    16    18   ar
    23    18    19   ar
    24     8    11    1
    25    11    12    1
    26    23    24   ar
    27    24    20   ar
    28     5     1   ar
    29    19    13   ar
    30    11     4    1
