@<TRIPOS>MOLECULE
*****
 25 27 0 0 0
SMALL
GASTEIGER

@<TRIPOS>ATOM
      1 C          63.8033   89.5571   15.0573 C.2     1  UNL1        0.2320
      2 O          62.4626   89.3722   15.7041 O.2     1  UNL1       -0.2744
      3 N          64.6115   88.3605   14.6511 N.am    1  UNL1       -0.2639
      4 H          65.4914   88.4818   14.2266 H       1  UNL1        0.1567
      5 C          64.0790   86.9790   14.8917 C.ar    1  UNL1        0.1655
      6 N          63.8719   85.9201   13.8497 N.ar    1  UNL1       -0.2239
      7 C          63.3250   84.7005   14.5305 C.ar    1  UNL1        0.0899
      8 C          63.1940   85.0057   15.9933 C.ar    1  UNL1        0.0572
      9 S          63.6600   86.4139   16.2165 S.2     1  UNL1       -0.0508
     10 C          62.9712   83.4034   13.8654 C.ar    1  UNL1        0.0221
     11 C          62.1628   82.3780   14.6036 C.ar    1  UNL1        0.0223
     12 C          61.8090   81.0810   13.9386 C.ar    1  UNL1        0.0999
     13 N          62.2635   80.8093   12.5350 N.ar    1  UNL1       -0.2324
     14 C          63.0719   81.8347   11.7968 C.ar    1  UNL1        0.1384
     15 CL         63.5264   81.5631   10.3934 Cl      1  UNL1       -0.0613
     16 C          63.4257   83.1318   12.4619 C.ar    1  UNL1        0.0323
     17 C          64.3358   90.9386   14.8167 C.3     1  UNL1        0.1118
     18 C          65.8304   92.9091   11.7130 C.ar    1  UNL1        0.1384
     19 C          64.9429   92.4149   10.6093 C.ar    1  UNL1        0.0369
     20 C          63.8530   91.4286   10.9081 C.ar    1  UNL1        0.0028
     21 C          63.6506   90.9365   12.3106 C.ar    1  UNL1       -0.0036
     22 C          64.5381   91.4307   13.4142 C.ar    1  UNL1       -0.0101
     23 C          65.6280   92.4170   13.1154 C.ar    1  UNL1        0.0331
     24 C          66.5744   95.2674   10.9160 C.3     1  UNL1        0.2525
     25 O          66.9203   93.8955   11.4142 O.3     1  UNL1       -0.4714
@<TRIPOS>BOND
     1    24    25    1
     2    25    18    1
     3    18    19   ar
     4    19    20   ar
     5    20    21   ar
     6    21    22   ar
     7    22    17    1
     8    17     1    1
     9     1     2    2
    10     1     3   am
    11     3     5    1
    12     5     6   ar
    13     6     7   ar
    14     7    10    1
    15    10    11   ar
    16    11    12   ar
    17    12    13   ar
    18    13    14   ar
    19    14    15    1
    20    14    16   ar
    21     7     8   ar
    22     8     9   ar
    23    22    23   ar
    24    23    18   ar
    25     9     5   ar
    26    16    10   ar
    27     3     4    1
@<TRIPOS>MOLECULE
*****
 25 27 0 0 0
SMALL
GASTEIGER

@<TRIPOS>ATOM
      1 C          63.6036   89.3045   15.5395 C.2     1  UNL1        0.2320
      2 O          62.4235   88.7819   16.3038 O.2     1  UNL1       -0.2744
      3 N          64.4774   88.3587   14.7700 N.am    1  UNL1       -0.2639
      4 H          65.2519   88.7017   14.2683 H       1  UNL1        0.1567
      5 C          64.1711   86.8903   14.7649 C.ar    1  UNL1        0.1655
      6 N          63.9980   86.0300   13.5485 N.ar    1  UNL1       -0.2239
      7 C          63.7040   84.6324   14.0071 C.ar    1  UNL1        0.0899
      8 C          63.6954   84.6290   15.5071 C.ar    1  UNL1        0.0572
      9 S          63.9840   86.0245   15.9755 S.2     1  UNL1       -0.0508
     10 C          63.4613   83.4465   13.1213 C.ar    1  UNL1        0.0221
     11 C          63.8125   83.5140   11.6646 C.ar    1  UNL1        0.0223
     12 C          63.5698   82.3281   10.7788 C.ar    1  UNL1        0.0999
     13 N          62.9758   81.0745   11.3498 N.ar    1  UNL1       -0.2324
     14 C          62.6246   81.0070   12.8065 C.ar    1  UNL1        0.1384
     15 CL         62.0306   79.7536   13.3774 Cl      1  UNL1       -0.0613
     16 C          62.8673   82.1930   13.6923 C.ar    1  UNL1        0.0323
     17 C          63.9099   90.7728   15.5445 C.3     1  UNL1        0.1118
     18 C          67.1613   92.3158   13.8719 C.ar    1  UNL1        0.1384
     19 C          66.6925   92.5015   12.4592 C.ar    1  UNL1        0.0369
     20 C          65.2961   92.1110   12.0750 C.ar    1  UNL1        0.0028
     21 C          64.3686   91.5348   13.1034 C.ar    1  UNL1       -0.0036
     22 C          64.8374   91.3491   14.5160 C.ar    1  UNL1       -0.0101
     23 C          66.2338   91.7396   14.9003 C.ar    1  UNL1        0.0331
     24 C          68.8566   93.1348   15.6622 C.3     1  UNL1        0.2525
     25 O          68.5577   92.7063   14.2561 O.3     1  UNL1       -0.4714
@<TRIPOS>BOND
     1    24    25    1
     2    25    18    1
     3    18    19   ar
     4    19    20   ar
     5    20    21   ar
     6    21    22   ar
     7    22    17    1
     8    17     1    1
     9     1     2    2
    10     1     3   am
    11     3     5    1
    12     5     6   ar
    13     6     7   ar
    14     7    10    1
    15    10    11   ar
    16    11    12   ar
    17    12    13   ar
    18    13    14   ar
    19    14    15    1
    20    14    16   ar
    21     7     8   ar
    22     8     9   ar
    23    22    23   ar
    24    23    18   ar
    25     9     5   ar
    26    16    10   ar
    27     3     4    1
@<TRIPOS>MOLECULE
*****
 25 27 0 0 0
SMALL
GASTEIGER

@<TRIPOS>ATOM
      1 C          63.8077   89.5286   15.1341 C.2     1  UNL1        0.2320
      2 O          62.4302   89.3568   15.7024 O.2     1  UNL1       -0.2744
      3 N          64.6251   88.3242   14.7716 N.am    1  UNL1       -0.2639
      4 H          65.5292   88.4370   14.3986 H       1  UNL1        0.1567
      5 C          64.0650   86.9480   14.9774 C.ar    1  UNL1        0.1655
      6 N          63.8997   85.8963   13.9208 N.ar    1  UNL1       -0.2239
      7 C          63.3044   84.6802   14.5664 C.ar    1  UNL1        0.0899
      8 C          63.1017   84.9804   16.0220 C.ar    1  UNL1        0.0572
      9 S          63.5718   86.3820   16.2760 S.2     1  UNL1       -0.0508
     10 C          62.9704   83.3904   13.8773 C.ar    1  UNL1        0.0221
     11 C          62.1881   82.3344   14.6004 C.ar    1  UNL1        0.0223
     12 C          61.8540   81.0447   13.9114 C.ar    1  UNL1        0.0999
     13 N          62.3024   80.8107   12.4991 N.ar    1  UNL1       -0.2324
     14 C          63.0848   81.8667   11.7760 C.ar    1  UNL1        0.1384
     15 CL         63.5331   81.6328   10.3638 Cl      1  UNL1       -0.0613
     16 C          63.4188   83.1565   12.4651 C.ar    1  UNL1        0.0323
     17 C          64.3678   90.9048   14.9283 C.3     1  UNL1        0.1118
     18 C          63.9382   91.5622   11.0381 C.ar    1  UNL1        0.1384
     19 C          65.1365   92.4211   10.7617 C.ar    1  UNL1        0.0369
     20 C          66.0786   92.7745   11.8742 C.ar    1  UNL1        0.0028
     21 C          65.8223   92.2691   13.2630 C.ar    1  UNL1       -0.0036
     22 C          64.6241   91.4102   13.5394 C.ar    1  UNL1       -0.0101
     23 C          63.6820   91.0568   12.4269 C.ar    1  UNL1        0.0331
     24 C          62.0903   90.0206   10.0589 C.3     1  UNL1        0.2525
     25 O          62.9962   91.2087    9.9256 O.3     1  UNL1       -0.4714
@<TRIPOS>BOND
     1    24    25    1
     2    25    18    1
     3    18    19   ar
     4    19    20   ar
     5    20    21   ar
     6    21    22   ar
     7    22    17    1
     8    17     1    1
     9     1     2    2
    10     1     3   am
    11     3     5    1
    12     5     6   ar
    13     6     7   ar
    14     7    10    1
    15    10    11   ar
    16    11    12   ar
    17    12    13   ar
    18    13    14   ar
    19    14    15    1
    20    14    16   ar
    21     7     8   ar
    22     8     9   ar
    23    22    23   ar
    24    23    18   ar
    25     9     5   ar
    26    16    10   ar
    27     3     4    1
@<TRIPOS>MOLECULE
*****
 25 27 0 0 0
SMALL
GASTEIGER

@<TRIPOS>ATOM
      1 C          63.5222   89.0843   13.2652 C.2     1  UNL1        0.2320
      2 O          63.0483   88.3397   12.0523 O.2     1  UNL1       -0.2744
      3 N          63.9983   88.3288   14.4705 N.am    1  UNL1       -0.2639
      4 H          64.3094   88.8175   15.2665 H       1  UNL1        0.1567
      5 C          64.0005   86.8289   14.4629 C.ar    1  UNL1        0.1655
      6 N          63.6766   85.9527   13.2893 N.ar    1  UNL1       -0.2239
      7 C          63.8029   84.5240   13.7286 C.ar    1  UNL1        0.0899
      8 C          64.2049   84.5173   15.1738 C.ar    1  UNL1        0.0572
      9 S          64.3270   85.9417   15.6275 S.2     1  UNL1       -0.0508
     10 C          63.5684   83.3145   12.8730 C.ar    1  UNL1        0.0221
     11 C          63.9486   83.3369   11.4221 C.ar    1  UNL1        0.0223
     12 C          63.7141   82.1275   10.5665 C.ar    1  UNL1        0.0999
     13 N          63.0994   80.8954   11.1618 N.ar    1  UNL1       -0.2324
     14 C          62.7193   80.8729   12.6127 C.ar    1  UNL1        0.1384
     15 CL         62.1046   79.6409   13.2079 Cl      1  UNL1       -0.0613
     16 C          62.9538   82.0825   13.4683 C.ar    1  UNL1        0.0323
     17 C          63.5200   90.5842   13.2728 C.3     1  UNL1        0.1118
     18 C          66.5482   93.0553   12.5845 C.ar    1  UNL1        0.1384
     19 C          67.3774   92.8372   13.8153 C.ar    1  UNL1        0.0369
     20 C          66.9208   91.8681   14.8653 C.ar    1  UNL1        0.0028
     21 C          65.6350   91.1171   14.6844 C.ar    1  UNL1       -0.0036
     22 C          64.8059   91.3352   13.4537 C.ar    1  UNL1       -0.0101
     23 C          65.2624   92.3043   12.4037 C.ar    1  UNL1        0.0331
     24 C          66.0238   94.9731   10.9121 C.3     1  UNL1        0.2525
     25 O          67.0048   94.0244   11.5346 O.3     1  UNL1       -0.4714
@<TRIPOS>BOND
     1    24    25    1
     2    25    18    1
     3    18    19   ar
     4    19    20   ar
     5    20    21   ar
     6    21    22   ar
     7    22    17    1
     8    17     1    1
     9     1     2    2
    10     1     3   am
    11     3     5    1
    12     5     6   ar
    13     6     7   ar
    14     7    10    1
    15    10    11   ar
    16    11    12   ar
    17    12    13   ar
    18    13    14   ar
    19    14    15    1
    20    14    16   ar
    21     7     8   ar
    22     8     9   ar
    23    22    23   ar
    24    23    18   ar
    25     9     5   ar
    26    16    10   ar
    27     3     4    1
@<TRIPOS>MOLECULE
*****
 25 27 0 0 0
SMALL
GASTEIGER

@<TRIPOS>ATOM
      1 C          63.0521   84.6105   15.1179 C.2     1  UNL1        0.2320
      2 O          62.3807   85.2361   13.9314 O.2     1  UNL1       -0.2744
      3 N          63.6859   85.4779   16.1649 N.am    1  UNL1       -0.2639
      4 H          64.1266   85.0673   16.9436 H       1  UNL1        0.1567
      5 C          63.6482   86.9709   16.0253 C.ar    1  UNL1        0.1655
      6 N          64.2668   87.7685   14.9158 N.ar    1  UNL1       -0.2239
      7 C          63.9862   89.2190   15.1755 C.ar    1  UNL1        0.0899
      8 C          63.1941   89.3178   16.4455 C.ar    1  UNL1        0.0572
      9 S          62.9852   87.9283   16.9707 S.2     1  UNL1       -0.0508
     10 C          64.4212   90.3688   14.3160 C.ar    1  UNL1        0.0221
     11 C          63.8777   90.5136   12.9255 C.ar    1  UNL1        0.0223
     12 C          64.3126   91.6633   12.0661 C.ar    1  UNL1        0.0999
     13 N          65.2913   92.6685   12.5972 N.ar    1  UNL1       -0.2324
     14 C          65.8348   92.5238   13.9877 C.ar    1  UNL1        0.1384
     15 CL         66.8134   93.5289   14.5188 Cl      1  UNL1       -0.0613
     16 C          65.3998   91.3740   14.8471 C.ar    1  UNL1        0.0323
     17 C          63.0899   83.1175   15.2575 C.3     1  UNL1        0.1118
     18 C          63.6732   81.8408   11.5454 C.ar    1  UNL1        0.1384
     19 C          62.9800   80.5114   11.5906 C.ar    1  UNL1        0.0369
     20 C          62.3234   80.0507   12.8581 C.ar    1  UNL1        0.0028
     21 C          62.3600   80.9193   14.0804 C.ar    1  UNL1       -0.0036
     22 C          63.0532   82.2487   14.0352 C.ar    1  UNL1       -0.0101
     23 C          63.7098   82.7095   12.7676 C.ar    1  UNL1        0.0331
     24 C          63.9771   83.6371    9.6931 C.3     1  UNL1        0.2525
     25 O          64.3298   82.3016   10.2778 O.3     1  UNL1       -0.4714
@<TRIPOS>BOND
     1    24    25    1
     2    25    18    1
     3    18    19   ar
     4    19    20   ar
     5    20    21   ar
     6    21    22   ar
     7    22    17    1
     8    17     1    1
     9     1     2    2
    10     1     3   am
    11     3     5    1
    12     5     6   ar
    13     6     7   ar
    14     7    10    1
    15    10    11   ar
    16    11    12   ar
    17    12    13   ar
    18    13    14   ar
    19    14    15    1
    20    14    16   ar
    21     7     8   ar
    22     8     9   ar
    23    22    23   ar
    24    23    18   ar
    25     9     5   ar
    26    16    10   ar
    27     3     4    1
@<TRIPOS>MOLECULE
*****
 25 27 0 0 0
SMALL
GASTEIGER

@<TRIPOS>ATOM
      1 C          64.2232   85.4896   15.4631 C.2     1  UNL1        0.2320
      2 O          65.5599   85.8939   14.9155 O.2     1  UNL1       -0.2744
      3 N          63.2307   86.5385   15.8692 N.am    1  UNL1       -0.2639
      4 H          62.3534   86.2731   16.2287 H       1  UNL1        0.1567
      5 C          63.5749   87.9915   15.7277 C.ar    1  UNL1        0.1655
      6 N          64.4881   88.5849   14.6963 N.ar    1  UNL1       -0.2239
      7 C          64.5439   90.0665   14.9239 C.ar    1  UNL1        0.0899
      8 C          63.6652   90.3888   16.0961 C.ar    1  UNL1        0.0572
      9 S          63.0663   89.1064   16.5929 S.2     1  UNL1       -0.0508
     10 C          65.3389   91.0526   14.1204 C.ar    1  UNL1        0.0221
     11 C          66.6538   91.5553   14.6382 C.ar    1  UNL1        0.0223
     12 C          67.4488   92.5414   13.8349 C.ar    1  UNL1        0.0999
     13 N          66.9288   93.0249   12.5134 N.ar    1  UNL1       -0.2324
     14 C          65.6139   92.5222   11.9956 C.ar    1  UNL1        0.1384
     15 CL         65.0939   93.0056   10.6743 Cl      1  UNL1       -0.0613
     16 C          64.8189   91.5360   12.7991 C.ar    1  UNL1        0.0323
     17 C          63.8790   84.0365   15.6046 C.3     1  UNL1        0.1118
     18 C          63.8549   82.6270   11.8948 C.ar    1  UNL1        0.1384
     19 C          62.7360   81.6314   11.9771 C.ar    1  UNL1        0.0369
     20 C          61.9981   81.4375   13.2685 C.ar    1  UNL1        0.0028
     21 C          62.3791   82.2392   14.4777 C.ar    1  UNL1       -0.0036
     22 C          63.4980   83.2348   14.3954 C.ar    1  UNL1       -0.0101
     23 C          64.2359   83.4287   13.1039 C.ar    1  UNL1        0.0331
     24 C          63.9785   83.6350    9.5034 C.3     1  UNL1        0.2525
     25 O          64.5928   82.8209   10.6033 O.3     1  UNL1       -0.4714
@<TRIPOS>BOND
     1    24    25    1
     2    25    18    1
     3    18    19   ar
     4    19    20   ar
     5    20    21   ar
     6    21    22   ar
     7    22    17    1
     8    17     1    1
     9     1     2    2
    10     1     3   am
    11     3     5    1
    12     5     6   ar
    13     6     7   ar
    14     7    10    1
    15    10    11   ar
    16    11    12   ar
    17    12    13   ar
    18    13    14   ar
    19    14    15    1
    20    14    16   ar
    21     7     8   ar
    22     8     9   ar
    23    22    23   ar
    24    23    18   ar
    25     9     5   ar
    26    16    10   ar
    27     3     4    1
@<TRIPOS>MOLECULE
*****
 25 27 0 0 0
SMALL
GASTEIGER

@<TRIPOS>ATOM
      1 C          63.1534   89.4635   12.3966 C.2     1  UNL1        0.2320
      2 O          63.8356   88.6606   13.4643 O.2     1  UNL1       -0.2744
      3 N          62.4323   88.7677   11.2803 N.am    1  UNL1       -0.2639
      4 H          61.9846   89.2947   10.5796 H       1  UNL1        0.1567
      5 C          62.3936   87.2690   11.2318 C.ar    1  UNL1        0.1655
      6 N          62.7664   86.3407   12.3495 N.ar    1  UNL1       -0.2239
      7 C          62.5784   84.9335   11.8655 C.ar    1  UNL1        0.0899
      8 C          62.0894   84.9920   10.4486 C.ar    1  UNL1        0.0572
      9 S          61.9752   86.4355   10.0569 S.2     1  UNL1       -0.0508
     10 C          62.8344   83.6866   12.6590 C.ar    1  UNL1        0.0221
     11 C          63.3521   83.7844   14.0634 C.ar    1  UNL1        0.0223
     12 C          63.6082   82.5376   14.8570 C.ar    1  UNL1        0.0999
     13 N          63.3465   81.1927   14.2461 N.ar    1  UNL1       -0.2324
     14 C          62.8288   81.0949   12.8417 C.ar    1  UNL1        0.1384
     15 CL         62.5672   79.7502   12.2308 Cl      1  UNL1       -0.0613
     16 C          62.5728   82.3418   12.0481 C.ar    1  UNL1        0.0323
     17 C          63.1922   90.9622   12.4452 C.3     1  UNL1        0.1118
     18 C          66.7846   92.6065   12.8204 C.ar    1  UNL1        0.1384
     19 C          66.9941   93.1485   11.4376 C.ar    1  UNL1        0.0369
     20 C          65.9364   92.9617   10.3906 C.ar    1  UNL1        0.0028
     21 C          64.6690   92.2329   10.7264 C.ar    1  UNL1       -0.0036
     22 C          64.4595   91.6910   12.1093 C.ar    1  UNL1       -0.0101
     23 C          65.5173   91.8778   13.1563 C.ar    1  UNL1        0.0331
     24 C          67.6532   92.2113   15.2369 C.3     1  UNL1        0.2525
     25 O          67.8424   92.7933   13.8674 O.3     1  UNL1       -0.4714
@<TRIPOS>BOND
     1    24    25    1
     2    25    18    1
     3    18    19   ar
     4    19    20   ar
     5    20    21   ar
     6    21    22   ar
     7    22    17    1
     8    17     1    1
     9     1     2    2
    10     1     3   am
    11     3     5    1
    12     5     6   ar
    13     6     7   ar
    14     7    10    1
    15    10    11   ar
    16    11    12   ar
    17    12    13   ar
    18    13    14   ar
    19    14    15    1
    20    14    16   ar
    21     7     8   ar
    22     8     9   ar
    23    22    23   ar
    24    23    18   ar
    25     9     5   ar
    26    16    10   ar
    27     3     4    1
@<TRIPOS>MOLECULE
*****
 25 27 0 0 0
SMALL
GASTEIGER

@<TRIPOS>ATOM
      1 C          63.8098   89.4564   13.7976 C.2     1  UNL1        0.2320
      2 O          63.8434   87.9803   13.5332 O.2     1  UNL1       -0.2744
      3 N          62.7800   90.3155   13.1255 N.am    1  UNL1       -0.2639
      4 H          62.7580   91.2844   13.2990 H       1  UNL1        0.1567
      5 C          61.7841   89.6985   12.1889 C.ar    1  UNL1        0.1655
      6 N          62.0871   88.6961   11.1150 N.ar    1  UNL1       -0.2239
      7 C          60.8005   88.3536   10.4241 C.ar    1  UNL1        0.0899
      8 C          59.7022   89.1443   11.0711 C.ar    1  UNL1        0.0572
      9 S          60.3101   89.9755   12.1618 S.2     1  UNL1       -0.0508
     10 C          60.6403   87.3896    9.2861 C.ar    1  UNL1        0.0221
     11 C          59.3280   87.2903    8.5664 C.ar    1  UNL1        0.0223
     12 C          59.1677   86.3264    7.4284 C.ar    1  UNL1        0.0999
     13 N          60.3198   85.4616    7.0101 N.ar    1  UNL1       -0.2324
     14 C          61.6321   85.5609    7.7298 C.ar    1  UNL1        0.1384
     15 CL         62.7842   84.6962    7.3115 Cl      1  UNL1       -0.0613
     16 C          61.7923   86.5249    8.8678 C.ar    1  UNL1        0.0323
     17 C          64.8057   90.0735   14.7342 C.3     1  UNL1        0.1118
     18 C          65.9734   93.2394   12.6452 C.ar    1  UNL1        0.1384
     19 C          66.7608   93.9871   13.6801 C.ar    1  UNL1        0.0369
     20 C          66.8965   93.4303   15.0663 C.ar    1  UNL1        0.0028
     21 C          66.2449   92.1258   15.4177 C.ar    1  UNL1       -0.0036
     22 C          65.4575   91.3781   14.3828 C.ar    1  UNL1       -0.0101
     23 C          65.3218   91.9349   12.9966 C.ar    1  UNL1        0.0331
     24 C          66.0211   95.2655   11.0197 C.3     1  UNL1        0.2525
     25 O          65.8377   93.7962   11.2590 O.3     1  UNL1       -0.4714
@<TRIPOS>BOND
     1    24    25    1
     2    25    18    1
     3    18    19   ar
     4    19    20   ar
     5    20    21   ar
     6    21    22   ar
     7    22    17    1
     8    17     1    1
     9     1     2    2
    10     1     3   am
    11     3     5    1
    12     5     6   ar
    13     6     7   ar
    14     7    10    1
    15    10    11   ar
    16    11    12   ar
    17    12    13   ar
    18    13    14   ar
    19    14    15    1
    20    14    16   ar
    21     7     8   ar
    22     8     9   ar
    23    22    23   ar
    24    23    18   ar
    25     9     5   ar
    26    16    10   ar
    27     3     4    1
@<TRIPOS>MOLECULE
*****
 25 27 0 0 0
SMALL
GASTEIGER

@<TRIPOS>ATOM
      1 C          63.5434   89.4703   14.4458 C.2     1  UNL1        0.2320
      2 O          62.4859   89.8476   13.4511 O.2     1  UNL1       -0.2744
      3 N          64.1117   88.0820   14.4460 N.am    1  UNL1       -0.2639
      4 H          64.8058   87.8344   15.0988 H       1  UNL1        0.1567
      5 C          63.6226   87.0712   13.4515 C.ar    1  UNL1        0.1655
      6 N          63.1129   87.3667   12.0721 N.ar    1  UNL1       -0.2239
      7 C          62.7326   86.0656   11.4299 C.ar    1  UNL1        0.0899
      8 C          63.0073   84.9659   12.4125 C.ar    1  UNL1        0.0572
      9 S          63.5573   85.5875   13.6619 S.2     1  UNL1       -0.0508
     10 C          62.1755   85.8941   10.0478 C.ar    1  UNL1        0.0221
     11 C          62.9704   85.1680    9.0034 C.ar    1  UNL1        0.0223
     12 C          62.4134   84.9966    7.6213 C.ar    1  UNL1        0.0999
     13 N          61.0612   85.5513    7.2835 N.ar    1  UNL1       -0.2324
     14 C          60.2662   86.2773    8.3279 C.ar    1  UNL1        0.1384
     15 CL         58.9141   86.8320    7.9902 Cl      1  UNL1       -0.0613
     16 C          60.8233   86.4488    9.7100 C.ar    1  UNL1        0.0323
     17 C          64.0325   90.4811   15.4402 C.3     1  UNL1        0.1118
     18 C          66.8877   92.2822   13.3535 C.ar    1  UNL1        0.1384
     19 C          67.4945   93.1631   14.4050 C.ar    1  UNL1        0.0369
     20 C          66.9473   93.1500   15.8016 C.ar    1  UNL1        0.0028
     21 C          65.7933   92.2560   16.1467 C.ar    1  UNL1       -0.0036
     22 C          65.1865   91.3751   15.0952 C.ar    1  UNL1       -0.0101
     23 C          65.7337   91.3882   13.6986 C.ar    1  UNL1        0.0331
     24 C          66.5438   92.6567   10.8057 C.3     1  UNL1        0.2525
     25 O          67.4348   92.2952   11.9569 O.3     1  UNL1       -0.4714
@<TRIPOS>BOND
     1    24    25    1
     2    25    18    1
     3    18    19   ar
     4    19    20   ar
     5    20    21   ar
     6    21    22   ar
     7    22    17    1
     8    17     1    1
     9     1     2    2
    10     1     3   am
    11     3     5    1
    12     5     6   ar
    13     6     7   ar
    14     7    10    1
    15    10    11   ar
    16    11    12   ar
    17    12    13   ar
    18    13    14   ar
    19    14    15    1
    20    14    16   ar
    21     7     8   ar
    22     8     9   ar
    23    22    23   ar
    24    23    18   ar
    25     9     5   ar
    26    16    10   ar
    27     3     4    1
